/*---------------------------------------------------------------------------*\
  =========                 |
  \\      /  F ield         | OpenFOAM: The Open Source CFD Toolbox
   \\    /   O peration     | Website:  https://openfoam.org
    \\  /    A nd           | Version:  9
     \\/     M anipulation  |
\*---------------------------------------------------------------------------*/
Build  : 9-a0f1846504f2
Exec   : foamDataToFluent
Date   : Nov 07 2021
Time   : 18:38:18
Host   : "tw-Satellite-C45t-A"
PID    : 18594
I/O    : uncollated
Case   : /home/tw/OpenFOAM/tw-9/run/04-elbow
nProcs : 1
sigFpe : Enabling floating point exception trapping (FOAM_SIGFPE).
fileModificationChecking : Monitoring run-time modified files using timeStampMaster (fileModificationSkew 10)
allowSystemOperations : Allowing user-supplied system call operations

// * * * * * * * * * * * * * * * * * * * * * * * * * * * * * * * * * * * * * //
Create time

Create mesh for time = 0

Time = 0
    Converting field p
    Converting field U

Time = 0.05
    Converting field p
    Converting field U

Time = 0.1
    Converting field p
    Converting field U

Time = 0.15
    Converting field p
    Converting field U

Time = 0.2
    Converting field p
    Converting field U

Time = 0.25
    Converting field p
    Converting field U

Time = 0.3
    Converting field p
    Converting field U

Time = 0.35
    Converting field p
    Converting field U

Time = 0.4
    Converting field p
    Converting field U

Time = 0.45
    Converting field p
    Converting field U

Time = 0.5
    Converting field p
    Converting field U

Time = 0.55
    Converting field p
    Converting field U

Time = 0.6
    Converting field p
    Converting field U

Time = 0.65
    Converting field p
    Converting field U

Time = 0.7
    Converting field p
    Converting field U

Time = 0.75
    Converting field p
    Converting field U

Time = 0.8
    Converting field p
    Converting field U

Time = 0.85
    Converting field p
    Converting field U

Time = 0.9
    Converting field p
    Converting field U

Time = 0.95
    Converting field p
    Converting field U

Time = 1
    Converting field p
    Converting field U

Time = 1.05
    Converting field p
    Converting field U

Time = 1.1
    Converting field p
    Converting field U

Time = 1.15
    Converting field p
    Converting field U

Time = 1.2
    Converting field p
    Converting field U

Time = 1.25
    Converting field p
    Converting field U

Time = 1.3
    Converting field p
    Converting field U

Time = 1.35
    Converting field p
    Converting field U

Time = 1.4
    Converting field p
    Converting field U

Time = 1.45
    Converting field p
    Converting field U

Time = 1.5
    Converting field p
    Converting field U

Time = 1.55
    Converting field p
    Converting field U

Time = 1.6
    Converting field p
    Converting field U

Time = 1.65
    Converting field p
    Converting field U

Time = 1.7
    Converting field p
    Converting field U

Time = 1.75
    Converting field p
    Converting field U

Time = 1.8
    Converting field p
    Converting field U

Time = 1.85
    Converting field p
    Converting field U

Time = 1.9
    Converting field p
    Converting field U

Time = 1.95
    Converting field p
    Converting field U

Time = 2
    Converting field p
    Converting field U

Time = 2.05
    Converting field p
    Converting field U

Time = 2.1
    Converting field p
    Converting field U

Time = 2.15
    Converting field p
    Converting field U

Time = 2.2
    Converting field p
    Converting field U

Time = 2.25
    Converting field p
    Converting field U

Time = 2.3
    Converting field p
    Converting field U

Time = 2.35
    Converting field p
    Converting field U

Time = 2.4
    Converting field p
    Converting field U

Time = 2.45
    Converting field p
    Converting field U

Time = 2.5
    Converting field p
    Converting field U

Time = 2.55
    Converting field p
    Converting field U

Time = 2.6
    Converting field p
    Converting field U

Time = 2.65
    Converting field p
    Converting field U

Time = 2.7
    Converting field p
    Converting field U

Time = 2.75
    Converting field p
    Converting field U

Time = 2.8
    Converting field p
    Converting field U

Time = 2.85
    Converting field p
    Converting field U

Time = 2.9
    Converting field p
    Converting field U

Time = 2.95
    Converting field p
    Converting field U

Time = 3
    Converting field p
    Converting field U

Time = 3.05
    Converting field p
    Converting field U

Time = 3.1
    Converting field p
    Converting field U

Time = 3.15
    Converting field p
    Converting field U

Time = 3.2
    Converting field p
    Converting field U

Time = 3.25
    Converting field p
    Converting field U

Time = 3.3
    Converting field p
    Converting field U

Time = 3.35
    Converting field p
    Converting field U

Time = 3.4
    Converting field p
    Converting field U

Time = 3.45
    Converting field p
    Converting field U

Time = 3.5
    Converting field p
    Converting field U

Time = 3.55
    Converting field p
    Converting field U

Time = 3.6
    Converting field p
    Converting field U

Time = 3.65
    Converting field p
    Converting field U

Time = 3.7
    Converting field p
    Converting field U

Time = 3.75
    Converting field p
    Converting field U

Time = 3.8
    Converting field p
    Converting field U

Time = 3.85
    Converting field p
    Converting field U

Time = 3.9
    Converting field p
    Converting field U

Time = 3.95
    Converting field p
    Converting field U

Time = 4
    Converting field p
    Converting field U

Time = 4.05
    Converting field p
    Converting field U

Time = 4.1
    Converting field p
    Converting field U

Time = 4.15
    Converting field p
    Converting field U

Time = 4.2
    Converting field p
    Converting field U

Time = 4.25
    Converting field p
    Converting field U

Time = 4.3
    Converting field p
    Converting field U

Time = 4.35
    Converting field p
    Converting field U

Time = 4.4
    Converting field p
    Converting field U

Time = 4.45
    Converting field p
    Converting field U

Time = 4.5
    Converting field p
    Converting field U

Time = 4.55
    Converting field p
    Converting field U

Time = 4.6
    Converting field p
    Converting field U

Time = 4.65
    Converting field p
    Converting field U

Time = 4.7
    Converting field p
    Converting field U

Time = 4.75
    Converting field p
    Converting field U

Time = 4.8
    Converting field p
    Converting field U

Time = 4.85
    Converting field p
    Converting field U

Time = 4.9
    Converting field p
    Converting field U

Time = 4.95
    Converting field p
    Converting field U

Time = 5
    Converting field p
    Converting field U

Time = 5.05
    Converting field p
    Converting field U

Time = 5.1
    Converting field p
    Converting field U

Time = 5.15
    Converting field p
    Converting field U

Time = 5.2
    Converting field p
    Converting field U

Time = 5.25
    Converting field p
    Converting field U

Time = 5.3
    Converting field p
    Converting field U

Time = 5.35
    Converting field p
    Converting field U

Time = 5.4
    Converting field p
    Converting field U

Time = 5.45
    Converting field p
    Converting field U

Time = 5.5
    Converting field p
    Converting field U

Time = 5.55
    Converting field p
    Converting field U

Time = 5.6
    Converting field p
    Converting field U

Time = 5.65
    Converting field p
    Converting field U

Time = 5.7
    Converting field p
    Converting field U

Time = 5.75
    Converting field p
    Converting field U

Time = 5.8
    Converting field p
    Converting field U

Time = 5.85
    Converting field p
    Converting field U

Time = 5.9
    Converting field p
    Converting field U

Time = 5.95
    Converting field p
    Converting field U

Time = 6
    Converting field p
    Converting field U

Time = 6.05
    Converting field p
    Converting field U

Time = 6.1
    Converting field p
    Converting field U

Time = 6.15
    Converting field p
    Converting field U

Time = 6.2
    Converting field p
    Converting field U

Time = 6.25
    Converting field p
    Converting field U

Time = 6.3
    Converting field p
    Converting field U

Time = 6.35
    Converting field p
    Converting field U

Time = 6.4
    Converting field p
    Converting field U

Time = 6.45
    Converting field p
    Converting field U

Time = 6.5
    Converting field p
    Converting field U

Time = 6.55
    Converting field p
    Converting field U

Time = 6.6
    Converting field p
    Converting field U

Time = 6.65
    Converting field p
    Converting field U

Time = 6.7
    Converting field p
    Converting field U

Time = 6.75
    Converting field p
    Converting field U

Time = 6.8
    Converting field p
    Converting field U

Time = 6.85
    Converting field p
    Converting field U

Time = 6.9
    Converting field p
    Converting field U

Time = 6.95
    Converting field p
    Converting field U

Time = 7
    Converting field p
    Converting field U

Time = 7.05
    Converting field p
    Converting field U

Time = 7.1
    Converting field p
    Converting field U

Time = 7.15
    Converting field p
    Converting field U

Time = 7.2
    Converting field p
    Converting field U

Time = 7.25
    Converting field p
    Converting field U

Time = 7.3
    Converting field p
    Converting field U

Time = 7.35
    Converting field p
    Converting field U

Time = 7.4
    Converting field p
    Converting field U

Time = 7.45
    Converting field p
    Converting field U

Time = 7.5
    Converting field p
    Converting field U

Time = 7.55
    Converting field p
    Converting field U

Time = 7.6
    Converting field p
    Converting field U

Time = 7.65
    Converting field p
    Converting field U

Time = 7.7
    Converting field p
    Converting field U

Time = 7.75
    Converting field p
    Converting field U

Time = 7.8
    Converting field p
    Converting field U

Time = 7.85
    Converting field p
    Converting field U

Time = 7.9
    Converting field p
    Converting field U

Time = 7.95
    Converting field p
    Converting field U

Time = 8
    Converting field p
    Converting field U

Time = 8.05
    Converting field p
    Converting field U

Time = 8.1
    Converting field p
    Converting field U

Time = 8.15
    Converting field p
    Converting field U

Time = 8.2
    Converting field p
    Converting field U

Time = 8.25
    Converting field p
    Converting field U

Time = 8.3
    Converting field p
    Converting field U

Time = 8.35
    Converting field p
    Converting field U

Time = 8.4
    Converting field p
    Converting field U

Time = 8.45
    Converting field p
    Converting field U

Time = 8.5
    Converting field p
    Converting field U

Time = 8.55
    Converting field p
    Converting field U

Time = 8.6
    Converting field p
    Converting field U

Time = 8.65
    Converting field p
    Converting field U

Time = 8.7
    Converting field p
    Converting field U

Time = 8.75
    Converting field p
    Converting field U

Time = 8.8
    Converting field p
    Converting field U

Time = 8.85
    Converting field p
    Converting field U

Time = 8.9
    Converting field p
    Converting field U

Time = 8.95
    Converting field p
    Converting field U

Time = 9
    Converting field p
    Converting field U

Time = 9.05
    Converting field p
    Converting field U

Time = 9.1
    Converting field p
    Converting field U

Time = 9.15
    Converting field p
    Converting field U

Time = 9.2
    Converting field p
    Converting field U

Time = 9.25
    Converting field p
    Converting field U

Time = 9.3
    Converting field p
    Converting field U

Time = 9.35
    Converting field p
    Converting field U

Time = 9.4
    Converting field p
    Converting field U

Time = 9.45
    Converting field p
    Converting field U

Time = 9.5
    Converting field p
    Converting field U

Time = 9.55
    Converting field p
    Converting field U

Time = 9.6
    Converting field p
    Converting field U

Time = 9.65
    Converting field p
    Converting field U

Time = 9.7
    Converting field p
    Converting field U

Time = 9.75
    Converting field p
    Converting field U

Time = 9.8
    Converting field p
    Converting field U

Time = 9.85
    Converting field p
    Converting field U

Time = 9.9
    Converting field p
    Converting field U

Time = 9.95
    Converting field p
    Converting field U

Time = 10
    Converting field p
    Converting field U

Time = 10.05
    Converting field p
    Converting field U

Time = 10.1
    Converting field p
    Converting field U

Time = 10.15
    Converting field p
    Converting field U

Time = 10.2
    Converting field p
    Converting field U

Time = 10.25
    Converting field p
    Converting field U

Time = 10.3
    Converting field p
    Converting field U

Time = 10.35
    Converting field p
    Converting field U

Time = 10.4
    Converting field p
    Converting field U

Time = 10.45
    Converting field p
    Converting field U

Time = 10.5
    Converting field p
    Converting field U

Time = 10.55
    Converting field p
    Converting field U

Time = 10.6
    Converting field p
    Converting field U

Time = 10.65
    Converting field p
    Converting field U

Time = 10.7
    Converting field p
    Converting field U

Time = 10.75
    Converting field p
    Converting field U

Time = 10.8
    Converting field p
    Converting field U

Time = 10.85
    Converting field p
    Converting field U

Time = 10.9
    Converting field p
    Converting field U

Time = 10.95
    Converting field p
    Converting field U

Time = 11
    Converting field p
    Converting field U

Time = 11.05
    Converting field p
    Converting field U

Time = 11.1
    Converting field p
    Converting field U

Time = 11.15
    Converting field p
    Converting field U

Time = 11.2
    Converting field p
    Converting field U

Time = 11.25
    Converting field p
    Converting field U

Time = 11.3
    Converting field p
    Converting field U

Time = 11.35
    Converting field p
    Converting field U

Time = 11.4
    Converting field p
    Converting field U

Time = 11.45
    Converting field p
    Converting field U

Time = 11.5
    Converting field p
    Converting field U

Time = 11.55
    Converting field p
    Converting field U

Time = 11.6
    Converting field p
    Converting field U

Time = 11.65
    Converting field p
    Converting field U

Time = 11.7
    Converting field p
    Converting field U

Time = 11.75
    Converting field p
    Converting field U

Time = 11.8
    Converting field p
    Converting field U

Time = 11.85
    Converting field p
    Converting field U

Time = 11.9
    Converting field p
    Converting field U

Time = 11.95
    Converting field p
    Converting field U

Time = 12
    Converting field p
    Converting field U

Time = 12.05
    Converting field p
    Converting field U

Time = 12.1
    Converting field p
    Converting field U

Time = 12.15
    Converting field p
    Converting field U

Time = 12.2
    Converting field p
    Converting field U

Time = 12.25
    Converting field p
    Converting field U

Time = 12.3
    Converting field p
    Converting field U

Time = 12.35
    Converting field p
    Converting field U

Time = 12.4
    Converting field p
    Converting field U

Time = 12.45
    Converting field p
    Converting field U

Time = 12.5
    Converting field p
    Converting field U

Time = 12.55
    Converting field p
    Converting field U

Time = 12.6
    Converting field p
    Converting field U

Time = 12.65
    Converting field p
    Converting field U

Time = 12.7
    Converting field p
    Converting field U

Time = 12.75
    Converting field p
    Converting field U

Time = 12.8
    Converting field p
    Converting field U

Time = 12.85
    Converting field p
    Converting field U

Time = 12.9
    Converting field p
    Converting field U

Time = 12.95
    Converting field p
    Converting field U

Time = 13
    Converting field p
    Converting field U

Time = 13.05
    Converting field p
    Converting field U

Time = 13.1
    Converting field p
    Converting field U

Time = 13.15
    Converting field p
    Converting field U

Time = 13.2
    Converting field p
    Converting field U

Time = 13.25
    Converting field p
    Converting field U

Time = 13.3
    Converting field p
    Converting field U

Time = 13.35
    Converting field p
    Converting field U

Time = 13.4
    Converting field p
    Converting field U

Time = 13.45
    Converting field p
    Converting field U

Time = 13.5
    Converting field p
    Converting field U

Time = 13.55
    Converting field p
    Converting field U

Time = 13.6
    Converting field p
    Converting field U

Time = 13.65
    Converting field p
    Converting field U

Time = 13.7
    Converting field p
    Converting field U

Time = 13.75
    Converting field p
    Converting field U

Time = 13.8
    Converting field p
    Converting field U

Time = 13.85
    Converting field p
    Converting field U

Time = 13.9
    Converting field p
    Converting field U

Time = 13.95
    Converting field p
    Converting field U

Time = 14
    Converting field p
    Converting field U

Time = 14.05
    Converting field p
    Converting field U

Time = 14.1
    Converting field p
    Converting field U

Time = 14.15
    Converting field p
    Converting field U

Time = 14.2
    Converting field p
    Converting field U

Time = 14.25
    Converting field p
    Converting field U

Time = 14.3
    Converting field p
    Converting field U

Time = 14.35
    Converting field p
    Converting field U

Time = 14.4
    Converting field p
    Converting field U

Time = 14.45
    Converting field p
    Converting field U

Time = 14.5
    Converting field p
    Converting field U

Time = 14.55
    Converting field p
    Converting field U

Time = 14.6
    Converting field p
    Converting field U

Time = 14.65
    Converting field p
    Converting field U

Time = 14.7
    Converting field p
    Converting field U

Time = 14.75
    Converting field p
    Converting field U

Time = 14.8
    Converting field p
    Converting field U

Time = 14.85
    Converting field p
    Converting field U

Time = 14.9
    Converting field p
    Converting field U

Time = 14.95
    Converting field p
    Converting field U

Time = 15
    Converting field p
    Converting field U

Time = 15.05
    Converting field p
    Converting field U

Time = 15.1
    Converting field p
    Converting field U

Time = 15.15
    Converting field p
    Converting field U

Time = 15.2
    Converting field p
    Converting field U

Time = 15.25
    Converting field p
    Converting field U

Time = 15.3
    Converting field p
    Converting field U

Time = 15.35
    Converting field p
    Converting field U

Time = 15.4
    Converting field p
    Converting field U

Time = 15.45
    Converting field p
    Converting field U

Time = 15.5
    Converting field p
    Converting field U

Time = 15.55
    Converting field p
    Converting field U

Time = 15.6
    Converting field p
    Converting field U

Time = 15.65
    Converting field p
    Converting field U

Time = 15.7
    Converting field p
    Converting field U

Time = 15.75
    Converting field p
    Converting field U

Time = 15.8
    Converting field p
    Converting field U

Time = 15.85
    Converting field p
    Converting field U

Time = 15.9
    Converting field p
    Converting field U

Time = 15.95
    Converting field p
    Converting field U

Time = 16
    Converting field p
    Converting field U

Time = 16.05
    Converting field p
    Converting field U

Time = 16.1
    Converting field p
    Converting field U

Time = 16.15
    Converting field p
    Converting field U

Time = 16.2
    Converting field p
    Converting field U

Time = 16.25
    Converting field p
    Converting field U

Time = 16.3
    Converting field p
    Converting field U

Time = 16.35
    Converting field p
    Converting field U

Time = 16.4
    Converting field p
    Converting field U

Time = 16.45
    Converting field p
    Converting field U

Time = 16.5
    Converting field p
    Converting field U

Time = 16.55
    Converting field p
    Converting field U

Time = 16.6
    Converting field p
    Converting field U

Time = 16.65
    Converting field p
    Converting field U

Time = 16.7
    Converting field p
    Converting field U

Time = 16.75
    Converting field p
    Converting field U

Time = 16.8
    Converting field p
    Converting field U

Time = 16.85
    Converting field p
    Converting field U

Time = 16.9
    Converting field p
    Converting field U

Time = 16.95
    Converting field p
    Converting field U

Time = 17
    Converting field p
    Converting field U

Time = 17.05
    Converting field p
    Converting field U

Time = 17.1
    Converting field p
    Converting field U

Time = 17.15
    Converting field p
    Converting field U

Time = 17.2
    Converting field p
    Converting field U

Time = 17.25
    Converting field p
    Converting field U

Time = 17.3
    Converting field p
    Converting field U

Time = 17.35
    Converting field p
    Converting field U

Time = 17.4
    Converting field p
    Converting field U

Time = 17.45
    Converting field p
    Converting field U

Time = 17.5
    Converting field p
    Converting field U

Time = 17.55
    Converting field p
    Converting field U

Time = 17.6
    Converting field p
    Converting field U

Time = 17.65
    Converting field p
    Converting field U

Time = 17.7
    Converting field p
    Converting field U

Time = 17.75
    Converting field p
    Converting field U

Time = 17.8
    Converting field p
    Converting field U

Time = 17.85
    Converting field p
    Converting field U

Time = 17.9
    Converting field p
    Converting field U

Time = 17.95
    Converting field p
    Converting field U

Time = 18
    Converting field p
    Converting field U

Time = 18.05
    Converting field p
    Converting field U

Time = 18.1
    Converting field p
    Converting field U

Time = 18.15
    Converting field p
    Converting field U

Time = 18.2
    Converting field p
    Converting field U

Time = 18.25
    Converting field p
    Converting field U

Time = 18.3
    Converting field p
    Converting field U

Time = 18.35
    Converting field p
    Converting field U

Time = 18.4
    Converting field p
    Converting field U

Time = 18.45
    Converting field p
    Converting field U

Time = 18.5
    Converting field p
    Converting field U

Time = 18.55
    Converting field p
    Converting field U

Time = 18.6
    Converting field p
    Converting field U

Time = 18.65
    Converting field p
    Converting field U

Time = 18.7
    Converting field p
    Converting field U

Time = 18.75
    Converting field p
    Converting field U

Time = 18.8
    Converting field p
    Converting field U

Time = 18.85
    Converting field p
    Converting field U

Time = 18.9
    Converting field p
    Converting field U

Time = 18.95
    Converting field p
    Converting field U

Time = 19
    Converting field p
    Converting field U

Time = 19.05
    Converting field p
    Converting field U

Time = 19.1
    Converting field p
    Converting field U

Time = 19.15
    Converting field p
    Converting field U

Time = 19.2
    Converting field p
    Converting field U

Time = 19.25
    Converting field p
    Converting field U

Time = 19.3
    Converting field p
    Converting field U

Time = 19.35
    Converting field p
    Converting field U

Time = 19.4
    Converting field p
    Converting field U

Time = 19.45
    Converting field p
    Converting field U

Time = 19.5
    Converting field p
    Converting field U

Time = 19.55
    Converting field p
    Converting field U

Time = 19.6
    Converting field p
    Converting field U

Time = 19.65
    Converting field p
    Converting field U

Time = 19.7
    Converting field p
    Converting field U

Time = 19.75
    Converting field p
    Converting field U

Time = 19.8
    Converting field p
    Converting field U

Time = 19.85
    Converting field p
    Converting field U

Time = 19.9
    Converting field p
    Converting field U

Time = 19.95
    Converting field p
    Converting field U

Time = 20
    Converting field p
    Converting field U

Time = 20.05
    Converting field p
    Converting field U

Time = 20.1
    Converting field p
    Converting field U

Time = 20.15
    Converting field p
    Converting field U

Time = 20.2
    Converting field p
    Converting field U

Time = 20.25
    Converting field p
    Converting field U

Time = 20.3
    Converting field p
    Converting field U

Time = 20.35
    Converting field p
    Converting field U

Time = 20.4
    Converting field p
    Converting field U

Time = 20.45
    Converting field p
    Converting field U

Time = 20.5
    Converting field p
    Converting field U

Time = 20.55
    Converting field p
    Converting field U

Time = 20.6
    Converting field p
    Converting field U

Time = 20.65
    Converting field p
    Converting field U

Time = 20.7
    Converting field p
    Converting field U

Time = 20.75
    Converting field p
    Converting field U

Time = 20.8
    Converting field p
    Converting field U

Time = 20.85
    Converting field p
    Converting field U

Time = 20.9
    Converting field p
    Converting field U

Time = 20.95
    Converting field p
    Converting field U

Time = 21
    Converting field p
    Converting field U

Time = 21.05
    Converting field p
    Converting field U

Time = 21.1
    Converting field p
    Converting field U

Time = 21.15
    Converting field p
    Converting field U

Time = 21.2
    Converting field p
    Converting field U

Time = 21.25
    Converting field p
    Converting field U

Time = 21.3
    Converting field p
    Converting field U

Time = 21.35
    Converting field p
    Converting field U

Time = 21.4
    Converting field p
    Converting field U

Time = 21.45
    Converting field p
    Converting field U

Time = 21.5
    Converting field p
    Converting field U

Time = 21.55
    Converting field p
    Converting field U

Time = 21.6
    Converting field p
    Converting field U

Time = 21.65
    Converting field p
    Converting field U

Time = 21.7
    Converting field p
    Converting field U

Time = 21.75
    Converting field p
    Converting field U

Time = 21.8
    Converting field p
    Converting field U

Time = 21.85
    Converting field p
    Converting field U

Time = 21.9
    Converting field p
    Converting field U

Time = 21.95
    Converting field p
    Converting field U

Time = 22
    Converting field p
    Converting field U

Time = 22.05
    Converting field p
    Converting field U

Time = 22.1
    Converting field p
    Converting field U

Time = 22.15
    Converting field p
    Converting field U

Time = 22.2
    Converting field p
    Converting field U

Time = 22.25
    Converting field p
    Converting field U

Time = 22.3
    Converting field p
    Converting field U

Time = 22.35
    Converting field p
    Converting field U

Time = 22.4
    Converting field p
    Converting field U

Time = 22.45
    Converting field p
    Converting field U

Time = 22.5
    Converting field p
    Converting field U

Time = 22.55
    Converting field p
    Converting field U

Time = 22.6
    Converting field p
    Converting field U

Time = 22.65
    Converting field p
    Converting field U

Time = 22.7
    Converting field p
    Converting field U

Time = 22.75
    Converting field p
    Converting field U

Time = 22.8
    Converting field p
    Converting field U

Time = 22.85
    Converting field p
    Converting field U

Time = 22.9
    Converting field p
    Converting field U

Time = 22.95
    Converting field p
    Converting field U

Time = 23
    Converting field p
    Converting field U

Time = 23.05
    Converting field p
    Converting field U

Time = 23.1
    Converting field p
    Converting field U

Time = 23.15
    Converting field p
    Converting field U

Time = 23.2
    Converting field p
    Converting field U

Time = 23.25
    Converting field p
    Converting field U

Time = 23.3
    Converting field p
    Converting field U

Time = 23.35
    Converting field p
    Converting field U

Time = 23.4
    Converting field p
    Converting field U

Time = 23.45
    Converting field p
    Converting field U

Time = 23.5
    Converting field p
    Converting field U

Time = 23.55
    Converting field p
    Converting field U

Time = 23.6
    Converting field p
    Converting field U

Time = 23.65
    Converting field p
    Converting field U

Time = 23.7
    Converting field p
    Converting field U

Time = 23.75
    Converting field p
    Converting field U

Time = 23.8
    Converting field p
    Converting field U

Time = 23.85
    Converting field p
    Converting field U

Time = 23.9
    Converting field p
    Converting field U

Time = 23.95
    Converting field p
    Converting field U

Time = 24
    Converting field p
    Converting field U

Time = 24.05
    Converting field p
    Converting field U

Time = 24.1
    Converting field p
    Converting field U

Time = 24.15
    Converting field p
    Converting field U

Time = 24.2
    Converting field p
    Converting field U

Time = 24.25
    Converting field p
    Converting field U

Time = 24.3
    Converting field p
    Converting field U

Time = 24.35
    Converting field p
    Converting field U

Time = 24.4
    Converting field p
    Converting field U

Time = 24.45
    Converting field p
    Converting field U

Time = 24.5
    Converting field p
    Converting field U

Time = 24.55
    Converting field p
    Converting field U

Time = 24.6
    Converting field p
    Converting field U

Time = 24.65
    Converting field p
    Converting field U

Time = 24.7
    Converting field p
    Converting field U

Time = 24.75
    Converting field p
    Converting field U

Time = 24.8
    Converting field p
    Converting field U

Time = 24.85
    Converting field p
    Converting field U

Time = 24.9
    Converting field p
    Converting field U

Time = 24.95
    Converting field p
    Converting field U

Time = 25
    Converting field p
    Converting field U

Time = 25.05
    Converting field p
    Converting field U

Time = 25.1
    Converting field p
    Converting field U

Time = 25.15
    Converting field p
    Converting field U

Time = 25.2
    Converting field p
    Converting field U

Time = 25.25
    Converting field p
    Converting field U

Time = 25.3
    Converting field p
    Converting field U

Time = 25.35
    Converting field p
    Converting field U

Time = 25.4
    Converting field p
    Converting field U

Time = 25.45
    Converting field p
    Converting field U

Time = 25.5
    Converting field p
    Converting field U

Time = 25.55
    Converting field p
    Converting field U

Time = 25.6
    Converting field p
    Converting field U

Time = 25.65
    Converting field p
    Converting field U

Time = 25.7
    Converting field p
    Converting field U

Time = 25.75
    Converting field p
    Converting field U

Time = 25.8
    Converting field p
    Converting field U

Time = 25.85
    Converting field p
    Converting field U

Time = 25.9
    Converting field p
    Converting field U

Time = 25.95
    Converting field p
    Converting field U

Time = 26
    Converting field p
    Converting field U

Time = 26.05
    Converting field p
    Converting field U

Time = 26.1
    Converting field p
    Converting field U

Time = 26.15
    Converting field p
    Converting field U

Time = 26.2
    Converting field p
    Converting field U

Time = 26.25
    Converting field p
    Converting field U

Time = 26.3
    Converting field p
    Converting field U

Time = 26.35
    Converting field p
    Converting field U

Time = 26.4
    Converting field p
    Converting field U

Time = 26.45
    Converting field p
    Converting field U

Time = 26.5
    Converting field p
    Converting field U

Time = 26.55
    Converting field p
    Converting field U

Time = 26.6
    Converting field p
    Converting field U

Time = 26.65
    Converting field p
    Converting field U

Time = 26.7
    Converting field p
    Converting field U

Time = 26.75
    Converting field p
    Converting field U

Time = 26.8
    Converting field p
    Converting field U

Time = 26.85
    Converting field p
    Converting field U

Time = 26.9
    Converting field p
    Converting field U

Time = 26.95
    Converting field p
    Converting field U

Time = 27
    Converting field p
    Converting field U

Time = 27.05
    Converting field p
    Converting field U

Time = 27.1
    Converting field p
    Converting field U

Time = 27.15
    Converting field p
    Converting field U

Time = 27.2
    Converting field p
    Converting field U

Time = 27.25
    Converting field p
    Converting field U

Time = 27.3
    Converting field p
    Converting field U

Time = 27.35
    Converting field p
    Converting field U

Time = 27.4
    Converting field p
    Converting field U

Time = 27.45
    Converting field p
    Converting field U

Time = 27.5
    Converting field p
    Converting field U

Time = 27.55
    Converting field p
    Converting field U

Time = 27.6
    Converting field p
    Converting field U

Time = 27.65
    Converting field p
    Converting field U

Time = 27.7
    Converting field p
    Converting field U

Time = 27.75
    Converting field p
    Converting field U

Time = 27.8
    Converting field p
    Converting field U

Time = 27.85
    Converting field p
    Converting field U

Time = 27.9
    Converting field p
    Converting field U

Time = 27.95
    Converting field p
    Converting field U

Time = 28
    Converting field p
    Converting field U

Time = 28.05
    Converting field p
    Converting field U

Time = 28.1
    Converting field p
    Converting field U

Time = 28.15
    Converting field p
    Converting field U

Time = 28.2
    Converting field p
    Converting field U

Time = 28.25
    Converting field p
    Converting field U

Time = 28.3
    Converting field p
    Converting field U

Time = 28.35
    Converting field p
    Converting field U

Time = 28.4
    Converting field p
    Converting field U

Time = 28.45
    Converting field p
    Converting field U

Time = 28.5
    Converting field p
    Converting field U

Time = 28.55
    Converting field p
    Converting field U

Time = 28.6
    Converting field p
    Converting field U

Time = 28.65
    Converting field p
    Converting field U

Time = 28.7
    Converting field p
    Converting field U

Time = 28.75
    Converting field p
    Converting field U

Time = 28.8
    Converting field p
    Converting field U

Time = 28.85
    Converting field p
    Converting field U

Time = 28.9
    Converting field p
    Converting field U

Time = 28.95
    Converting field p
    Converting field U

Time = 29
    Converting field p
    Converting field U

Time = 29.05
    Converting field p
    Converting field U

Time = 29.1
    Converting field p
    Converting field U

Time = 29.15
    Converting field p
    Converting field U

Time = 29.2
    Converting field p
    Converting field U

Time = 29.25
    Converting field p
    Converting field U

Time = 29.3
    Converting field p
    Converting field U

Time = 29.35
    Converting field p
    Converting field U

Time = 29.4
    Converting field p
    Converting field U

Time = 29.45
    Converting field p
    Converting field U

Time = 29.5
    Converting field p
    Converting field U

Time = 29.55
    Converting field p
    Converting field U

Time = 29.6
    Converting field p
    Converting field U

Time = 29.65
    Converting field p
    Converting field U

Time = 29.7
    Converting field p
    Converting field U

Time = 29.75
    Converting field p
    Converting field U

Time = 29.8
    Converting field p
    Converting field U

Time = 29.85
    Converting field p
    Converting field U

Time = 29.9
    Converting field p
    Converting field U

Time = 29.95
    Converting field p
    Converting field U

Time = 30
    Converting field p
    Converting field U

Time = 30.05
    Converting field p
    Converting field U

Time = 30.1
    Converting field p
    Converting field U

Time = 30.15
    Converting field p
    Converting field U

Time = 30.2
    Converting field p
    Converting field U

Time = 30.25
    Converting field p
    Converting field U

Time = 30.3
    Converting field p
    Converting field U

Time = 30.35
    Converting field p
    Converting field U

Time = 30.4
    Converting field p
    Converting field U

Time = 30.45
    Converting field p
    Converting field U

Time = 30.5
    Converting field p
    Converting field U

Time = 30.55
    Converting field p
    Converting field U

Time = 30.6
    Converting field p
    Converting field U

Time = 30.65
    Converting field p
    Converting field U

Time = 30.7
    Converting field p
    Converting field U

Time = 30.75
    Converting field p
    Converting field U

Time = 30.8
    Converting field p
    Converting field U

Time = 30.85
    Converting field p
    Converting field U

Time = 30.9
    Converting field p
    Converting field U

Time = 30.95
    Converting field p
    Converting field U

Time = 31
    Converting field p
    Converting field U

Time = 31.05
    Converting field p
    Converting field U

Time = 31.1
    Converting field p
    Converting field U

Time = 31.15
    Converting field p
    Converting field U

Time = 31.2
    Converting field p
    Converting field U

Time = 31.25
    Converting field p
    Converting field U

Time = 31.3
    Converting field p
    Converting field U

Time = 31.35
    Converting field p
    Converting field U

Time = 31.4
    Converting field p
    Converting field U

Time = 31.45
    Converting field p
    Converting field U

Time = 31.5
    Converting field p
    Converting field U

Time = 31.55
    Converting field p
    Converting field U

Time = 31.6
    Converting field p
    Converting field U

Time = 31.65
    Converting field p
    Converting field U

Time = 31.7
    Converting field p
    Converting field U

Time = 31.75
    Converting field p
    Converting field U

Time = 31.8
    Converting field p
    Converting field U

Time = 31.85
    Converting field p
    Converting field U

Time = 31.9
    Converting field p
    Converting field U

Time = 31.95
    Converting field p
    Converting field U

Time = 32
    Converting field p
    Converting field U

Time = 32.05
    Converting field p
    Converting field U

Time = 32.1
    Converting field p
    Converting field U

Time = 32.15
    Converting field p
    Converting field U

Time = 32.2
    Converting field p
    Converting field U

Time = 32.25
    Converting field p
    Converting field U

Time = 32.3
    Converting field p
    Converting field U

Time = 32.35
    Converting field p
    Converting field U

Time = 32.4
    Converting field p
    Converting field U

Time = 32.45
    Converting field p
    Converting field U

Time = 32.5
    Converting field p
    Converting field U

Time = 32.55
    Converting field p
    Converting field U

Time = 32.6
    Converting field p
    Converting field U

Time = 32.65
    Converting field p
    Converting field U

Time = 32.7
    Converting field p
    Converting field U

Time = 32.75
    Converting field p
    Converting field U

Time = 32.8
    Converting field p
    Converting field U

Time = 32.85
    Converting field p
    Converting field U

Time = 32.9
    Converting field p
    Converting field U

Time = 32.95
    Converting field p
    Converting field U

Time = 33
    Converting field p
    Converting field U

Time = 33.05
    Converting field p
    Converting field U

Time = 33.1
    Converting field p
    Converting field U

Time = 33.15
    Converting field p
    Converting field U

Time = 33.2
    Converting field p
    Converting field U

Time = 33.25
    Converting field p
    Converting field U

Time = 33.3
    Converting field p
    Converting field U

Time = 33.35
    Converting field p
    Converting field U

Time = 33.4
    Converting field p
    Converting field U

Time = 33.45
    Converting field p
    Converting field U

Time = 33.5
    Converting field p
    Converting field U

Time = 33.55
    Converting field p
    Converting field U

Time = 33.6
    Converting field p
    Converting field U

Time = 33.65
    Converting field p
    Converting field U

Time = 33.7
    Converting field p
    Converting field U

Time = 33.75
    Converting field p
    Converting field U

Time = 33.8
    Converting field p
    Converting field U

Time = 33.85
    Converting field p
    Converting field U

Time = 33.9
    Converting field p
    Converting field U

Time = 33.95
    Converting field p
    Converting field U

Time = 34
    Converting field p
    Converting field U

Time = 34.05
    Converting field p
    Converting field U

Time = 34.1
    Converting field p
    Converting field U

Time = 34.15
    Converting field p
    Converting field U

Time = 34.2
    Converting field p
    Converting field U

Time = 34.25
    Converting field p
    Converting field U

Time = 34.3
    Converting field p
    Converting field U

Time = 34.35
    Converting field p
    Converting field U

Time = 34.4
    Converting field p
    Converting field U

Time = 34.45
    Converting field p
    Converting field U

Time = 34.5
    Converting field p
    Converting field U

Time = 34.55
    Converting field p
    Converting field U

Time = 34.6
    Converting field p
    Converting field U

Time = 34.65
    Converting field p
    Converting field U

Time = 34.7
    Converting field p
    Converting field U

Time = 34.75
    Converting field p
    Converting field U

Time = 34.8
    Converting field p
    Converting field U

Time = 34.85
    Converting field p
    Converting field U

Time = 34.9
    Converting field p
    Converting field U

Time = 34.95
    Converting field p
    Converting field U

Time = 35
    Converting field p
    Converting field U

Time = 35.05
    Converting field p
    Converting field U

Time = 35.1
    Converting field p
    Converting field U

Time = 35.15
    Converting field p
    Converting field U

Time = 35.2
    Converting field p
    Converting field U

Time = 35.25
    Converting field p
    Converting field U

Time = 35.3
    Converting field p
    Converting field U

Time = 35.35
    Converting field p
    Converting field U

Time = 35.4
    Converting field p
    Converting field U

Time = 35.45
    Converting field p
    Converting field U

Time = 35.5
    Converting field p
    Converting field U

Time = 35.55
    Converting field p
    Converting field U

Time = 35.6
    Converting field p
    Converting field U

Time = 35.65
    Converting field p
    Converting field U

Time = 35.7
    Converting field p
    Converting field U

Time = 35.75
    Converting field p
    Converting field U

Time = 35.8
    Converting field p
    Converting field U

Time = 35.85
    Converting field p
    Converting field U

Time = 35.9
    Converting field p
    Converting field U

Time = 35.95
    Converting field p
    Converting field U

Time = 36
    Converting field p
    Converting field U

Time = 36.05
    Converting field p
    Converting field U

Time = 36.1
    Converting field p
    Converting field U

Time = 36.15
    Converting field p
    Converting field U

Time = 36.2
    Converting field p
    Converting field U

Time = 36.25
    Converting field p
    Converting field U

Time = 36.3
    Converting field p
    Converting field U

Time = 36.35
    Converting field p
    Converting field U

Time = 36.4
    Converting field p
    Converting field U

Time = 36.45
    Converting field p
    Converting field U

Time = 36.5
    Converting field p
    Converting field U

Time = 36.55
    Converting field p
    Converting field U

Time = 36.6
    Converting field p
    Converting field U

Time = 36.65
    Converting field p
    Converting field U

Time = 36.7
    Converting field p
    Converting field U

Time = 36.75
    Converting field p
    Converting field U

Time = 36.8
    Converting field p
    Converting field U

Time = 36.85
    Converting field p
    Converting field U

Time = 36.9
    Converting field p
    Converting field U

Time = 36.95
    Converting field p
    Converting field U

Time = 37
    Converting field p
    Converting field U

Time = 37.05
    Converting field p
    Converting field U

Time = 37.1
    Converting field p
    Converting field U

Time = 37.15
    Converting field p
    Converting field U

Time = 37.2
    Converting field p
    Converting field U

Time = 37.25
    Converting field p
    Converting field U

Time = 37.3
    Converting field p
    Converting field U

Time = 37.35
    Converting field p
    Converting field U

Time = 37.4
    Converting field p
    Converting field U

Time = 37.45
    Converting field p
    Converting field U

Time = 37.5
    Converting field p
    Converting field U

Time = 37.55
    Converting field p
    Converting field U

Time = 37.6
    Converting field p
    Converting field U

Time = 37.65
    Converting field p
    Converting field U

Time = 37.7
    Converting field p
    Converting field U

Time = 37.75
    Converting field p
    Converting field U

Time = 37.8
    Converting field p
    Converting field U

Time = 37.85
    Converting field p
    Converting field U

Time = 37.9
    Converting field p
    Converting field U

Time = 37.95
    Converting field p
    Converting field U

Time = 38
    Converting field p
    Converting field U

Time = 38.05
    Converting field p
    Converting field U

Time = 38.1
    Converting field p
    Converting field U

Time = 38.15
    Converting field p
    Converting field U

Time = 38.2
    Converting field p
    Converting field U

Time = 38.25
    Converting field p
    Converting field U

Time = 38.3
    Converting field p
    Converting field U

Time = 38.35
    Converting field p
    Converting field U

Time = 38.4
    Converting field p
    Converting field U

Time = 38.45
    Converting field p
    Converting field U

Time = 38.5
    Converting field p
    Converting field U

Time = 38.55
    Converting field p
    Converting field U

Time = 38.6
    Converting field p
    Converting field U

Time = 38.65
    Converting field p
    Converting field U

Time = 38.7
    Converting field p
    Converting field U

Time = 38.75
    Converting field p
    Converting field U

Time = 38.8
    Converting field p
    Converting field U

Time = 38.85
    Converting field p
    Converting field U

Time = 38.9
    Converting field p
    Converting field U

Time = 38.95
    Converting field p
    Converting field U

Time = 39
    Converting field p
    Converting field U

Time = 39.05
    Converting field p
    Converting field U

Time = 39.1
    Converting field p
    Converting field U

Time = 39.15
    Converting field p
    Converting field U

Time = 39.2
    Converting field p
    Converting field U

Time = 39.25
    Converting field p
    Converting field U

Time = 39.3
    Converting field p
    Converting field U

Time = 39.35
    Converting field p
    Converting field U

Time = 39.4
    Converting field p
    Converting field U

Time = 39.45
    Converting field p
    Converting field U

Time = 39.5
    Converting field p
    Converting field U

Time = 39.55
    Converting field p
    Converting field U

Time = 39.6
    Converting field p
    Converting field U

Time = 39.65
    Converting field p
    Converting field U

Time = 39.7
    Converting field p
    Converting field U

Time = 39.75
    Converting field p
    Converting field U

Time = 39.8
    Converting field p
    Converting field U

Time = 39.85
    Converting field p
    Converting field U

Time = 39.9
    Converting field p
    Converting field U

Time = 39.95
    Converting field p
    Converting field U

Time = 40
    Converting field p
    Converting field U

Time = 40.05
    Converting field p
    Converting field U

Time = 40.1
    Converting field p
    Converting field U

Time = 40.15
    Converting field p
    Converting field U

Time = 40.2
    Converting field p
    Converting field U

Time = 40.25
    Converting field p
    Converting field U

Time = 40.3
    Converting field p
    Converting field U

Time = 40.35
    Converting field p
    Converting field U

Time = 40.4
    Converting field p
    Converting field U

Time = 40.45
    Converting field p
    Converting field U

Time = 40.5
    Converting field p
    Converting field U

Time = 40.55
    Converting field p
    Converting field U

Time = 40.6
    Converting field p
    Converting field U

Time = 40.65
    Converting field p
    Converting field U

Time = 40.7
    Converting field p
    Converting field U

Time = 40.75
    Converting field p
    Converting field U

Time = 40.8
    Converting field p
    Converting field U

Time = 40.85
    Converting field p
    Converting field U

Time = 40.9
    Converting field p
    Converting field U

Time = 40.95
    Converting field p
    Converting field U

Time = 41
    Converting field p
    Converting field U

Time = 41.05
    Converting field p
    Converting field U

Time = 41.1
    Converting field p
    Converting field U

Time = 41.15
    Converting field p
    Converting field U

Time = 41.2
    Converting field p
    Converting field U

Time = 41.25
    Converting field p
    Converting field U

Time = 41.3
    Converting field p
    Converting field U

Time = 41.35
    Converting field p
    Converting field U

Time = 41.4
    Converting field p
    Converting field U

Time = 41.45
    Converting field p
    Converting field U

Time = 41.5
    Converting field p
    Converting field U

Time = 41.55
    Converting field p
    Converting field U

Time = 41.6
    Converting field p
    Converting field U

Time = 41.65
    Converting field p
    Converting field U

Time = 41.7
    Converting field p
    Converting field U

Time = 41.75
    Converting field p
    Converting field U

Time = 41.8
    Converting field p
    Converting field U

Time = 41.85
    Converting field p
    Converting field U

Time = 41.9
    Converting field p
    Converting field U

Time = 41.95
    Converting field p
    Converting field U

Time = 42
    Converting field p
    Converting field U

Time = 42.05
    Converting field p
    Converting field U

Time = 42.1
    Converting field p
    Converting field U

Time = 42.15
    Converting field p
    Converting field U

Time = 42.2
    Converting field p
    Converting field U

Time = 42.25
    Converting field p
    Converting field U

Time = 42.3
    Converting field p
    Converting field U

Time = 42.35
    Converting field p
    Converting field U

Time = 42.4
    Converting field p
    Converting field U

Time = 42.45
    Converting field p
    Converting field U

Time = 42.5
    Converting field p
    Converting field U

Time = 42.55
    Converting field p
    Converting field U

Time = 42.6
    Converting field p
    Converting field U

Time = 42.65
    Converting field p
    Converting field U

Time = 42.7
    Converting field p
    Converting field U

Time = 42.75
    Converting field p
    Converting field U

Time = 42.8
    Converting field p
    Converting field U

Time = 42.85
    Converting field p
    Converting field U

Time = 42.9
    Converting field p
    Converting field U

Time = 42.95
    Converting field p
    Converting field U

Time = 43
    Converting field p
    Converting field U

Time = 43.05
    Converting field p
    Converting field U

Time = 43.1
    Converting field p
    Converting field U

Time = 43.15
    Converting field p
    Converting field U

Time = 43.2
    Converting field p
    Converting field U

Time = 43.25
    Converting field p
    Converting field U

Time = 43.3
    Converting field p
    Converting field U

Time = 43.35
    Converting field p
    Converting field U

Time = 43.4
    Converting field p
    Converting field U

Time = 43.45
    Converting field p
    Converting field U

Time = 43.5
    Converting field p
    Converting field U

Time = 43.55
    Converting field p
    Converting field U

Time = 43.6
    Converting field p
    Converting field U

Time = 43.65
    Converting field p
    Converting field U

Time = 43.7
    Converting field p
    Converting field U

Time = 43.75
    Converting field p
    Converting field U

Time = 43.8
    Converting field p
    Converting field U

Time = 43.85
    Converting field p
    Converting field U

Time = 43.9
    Converting field p
    Converting field U

Time = 43.95
    Converting field p
    Converting field U

Time = 44
    Converting field p
    Converting field U

Time = 44.05
    Converting field p
    Converting field U

Time = 44.1
    Converting field p
    Converting field U

Time = 44.15
    Converting field p
    Converting field U

Time = 44.2
    Converting field p
    Converting field U

Time = 44.25
    Converting field p
    Converting field U

Time = 44.3
    Converting field p
    Converting field U

Time = 44.35
    Converting field p
    Converting field U

Time = 44.4
    Converting field p
    Converting field U

Time = 44.45
    Converting field p
    Converting field U

Time = 44.5
    Converting field p
    Converting field U

Time = 44.55
    Converting field p
    Converting field U

Time = 44.6
    Converting field p
    Converting field U

Time = 44.65
    Converting field p
    Converting field U

Time = 44.7
    Converting field p
    Converting field U

Time = 44.75
    Converting field p
    Converting field U

Time = 44.8
    Converting field p
    Converting field U

Time = 44.85
    Converting field p
    Converting field U

Time = 44.9
    Converting field p
    Converting field U

Time = 44.95
    Converting field p
    Converting field U

Time = 45
    Converting field p
    Converting field U

Time = 45.05
    Converting field p
    Converting field U

Time = 45.1
    Converting field p
    Converting field U

Time = 45.15
    Converting field p
    Converting field U

Time = 45.2
    Converting field p
    Converting field U

Time = 45.25
    Converting field p
    Converting field U

Time = 45.3
    Converting field p
    Converting field U

Time = 45.35
    Converting field p
    Converting field U

Time = 45.4
    Converting field p
    Converting field U

Time = 45.45
    Converting field p
    Converting field U

Time = 45.5
    Converting field p
    Converting field U

Time = 45.55
    Converting field p
    Converting field U

Time = 45.6
    Converting field p
    Converting field U

Time = 45.65
    Converting field p
    Converting field U

Time = 45.7
    Converting field p
    Converting field U

Time = 45.75
    Converting field p
    Converting field U

Time = 45.8
    Converting field p
    Converting field U

Time = 45.85
    Converting field p
    Converting field U

Time = 45.9
    Converting field p
    Converting field U

Time = 45.95
    Converting field p
    Converting field U

Time = 46
    Converting field p
    Converting field U

Time = 46.05
    Converting field p
    Converting field U

Time = 46.1
    Converting field p
    Converting field U

Time = 46.15
    Converting field p
    Converting field U

Time = 46.2
    Converting field p
    Converting field U

Time = 46.25
    Converting field p
    Converting field U

Time = 46.3
    Converting field p
    Converting field U

Time = 46.35
    Converting field p
    Converting field U

Time = 46.4
    Converting field p
    Converting field U

Time = 46.45
    Converting field p
    Converting field U

Time = 46.5
    Converting field p
    Converting field U

Time = 46.55
    Converting field p
    Converting field U

Time = 46.6
    Converting field p
    Converting field U

Time = 46.65
    Converting field p
    Converting field U

Time = 46.7
    Converting field p
    Converting field U

Time = 46.75
    Converting field p
    Converting field U

Time = 46.8
    Converting field p
    Converting field U

Time = 46.85
    Converting field p
    Converting field U

Time = 46.9
    Converting field p
    Converting field U

Time = 46.95
    Converting field p
    Converting field U

Time = 47
    Converting field p
    Converting field U

Time = 47.05
    Converting field p
    Converting field U

Time = 47.1
    Converting field p
    Converting field U

Time = 47.15
    Converting field p
    Converting field U

Time = 47.2
    Converting field p
    Converting field U

Time = 47.25
    Converting field p
    Converting field U

Time = 47.3
    Converting field p
    Converting field U

Time = 47.35
    Converting field p
    Converting field U

Time = 47.4
    Converting field p
    Converting field U

Time = 47.45
    Converting field p
    Converting field U

Time = 47.5
    Converting field p
    Converting field U

Time = 47.55
    Converting field p
    Converting field U

Time = 47.6
    Converting field p
    Converting field U

Time = 47.65
    Converting field p
    Converting field U

Time = 47.7
    Converting field p
    Converting field U

Time = 47.75
    Converting field p
    Converting field U

Time = 47.8
    Converting field p
    Converting field U

Time = 47.85
    Converting field p
    Converting field U

Time = 47.9
    Converting field p
    Converting field U

Time = 47.95
    Converting field p
    Converting field U

Time = 48
    Converting field p
    Converting field U

Time = 48.05
    Converting field p
    Converting field U

Time = 48.1
    Converting field p
    Converting field U

Time = 48.15
    Converting field p
    Converting field U

Time = 48.2
    Converting field p
    Converting field U

Time = 48.25
    Converting field p
    Converting field U

Time = 48.3
    Converting field p
    Converting field U

Time = 48.35
    Converting field p
    Converting field U

Time = 48.4
    Converting field p
    Converting field U

Time = 48.45
    Converting field p
    Converting field U

Time = 48.5
    Converting field p
    Converting field U

Time = 48.55
    Converting field p
    Converting field U

Time = 48.6
    Converting field p
    Converting field U

Time = 48.65
    Converting field p
    Converting field U

Time = 48.7
    Converting field p
    Converting field U

Time = 48.75
    Converting field p
    Converting field U

Time = 48.8
    Converting field p
    Converting field U

Time = 48.85
    Converting field p
    Converting field U

Time = 48.9
    Converting field p
    Converting field U

Time = 48.95
    Converting field p
    Converting field U

Time = 49
    Converting field p
    Converting field U

Time = 49.05
    Converting field p
    Converting field U

Time = 49.1
    Converting field p
    Converting field U

Time = 49.15
    Converting field p
    Converting field U

Time = 49.2
    Converting field p
    Converting field U

Time = 49.25
    Converting field p
    Converting field U

Time = 49.3
    Converting field p
    Converting field U

Time = 49.35
    Converting field p
    Converting field U

Time = 49.4
    Converting field p
    Converting field U

Time = 49.45
    Converting field p
    Converting field U

Time = 49.5
    Converting field p
    Converting field U

Time = 49.55
    Converting field p
    Converting field U

Time = 49.6
    Converting field p
    Converting field U

Time = 49.65
    Converting field p
    Converting field U

Time = 49.7
    Converting field p
    Converting field U

Time = 49.75
    Converting field p
    Converting field U

Time = 49.8
    Converting field p
    Converting field U

Time = 49.85
    Converting field p
    Converting field U

Time = 49.9
    Converting field p
    Converting field U

Time = 49.95
    Converting field p
    Converting field U

Time = 50
    Converting field p
    Converting field U

Time = 50.05
    Converting field p
    Converting field U

Time = 50.1
    Converting field p
    Converting field U

Time = 50.15
    Converting field p
    Converting field U

Time = 50.2
    Converting field p
    Converting field U

Time = 50.25
    Converting field p
    Converting field U

Time = 50.3
    Converting field p
    Converting field U

Time = 50.35
    Converting field p
    Converting field U

Time = 50.4
    Converting field p
    Converting field U

Time = 50.45
    Converting field p
    Converting field U

Time = 50.5
    Converting field p
    Converting field U

Time = 50.55
    Converting field p
    Converting field U

Time = 50.6
    Converting field p
    Converting field U

Time = 50.65
    Converting field p
    Converting field U

Time = 50.7
    Converting field p
    Converting field U

Time = 50.75
    Converting field p
    Converting field U

Time = 50.8
    Converting field p
    Converting field U

Time = 50.85
    Converting field p
    Converting field U

Time = 50.9
    Converting field p
    Converting field U

Time = 50.95
    Converting field p
    Converting field U

Time = 51
    Converting field p
    Converting field U

Time = 51.05
    Converting field p
    Converting field U

Time = 51.1
    Converting field p
    Converting field U

Time = 51.15
    Converting field p
    Converting field U

Time = 51.2
    Converting field p
    Converting field U

Time = 51.25
    Converting field p
    Converting field U

Time = 51.3
    Converting field p
    Converting field U

Time = 51.35
    Converting field p
    Converting field U

Time = 51.4
    Converting field p
    Converting field U

Time = 51.45
    Converting field p
    Converting field U

Time = 51.5
    Converting field p
    Converting field U

Time = 51.55
    Converting field p
    Converting field U

Time = 51.6
    Converting field p
    Converting field U

Time = 51.65
    Converting field p
    Converting field U

Time = 51.7
    Converting field p
    Converting field U

Time = 51.75
    Converting field p
    Converting field U

Time = 51.8
    Converting field p
    Converting field U

Time = 51.85
    Converting field p
    Converting field U

Time = 51.9
    Converting field p
    Converting field U

Time = 51.95
    Converting field p
    Converting field U

Time = 52
    Converting field p
    Converting field U

Time = 52.05
    Converting field p
    Converting field U

Time = 52.1
    Converting field p
    Converting field U

Time = 52.15
    Converting field p
    Converting field U

Time = 52.2
    Converting field p
    Converting field U

Time = 52.25
    Converting field p
    Converting field U

Time = 52.3
    Converting field p
    Converting field U

Time = 52.35
    Converting field p
    Converting field U

Time = 52.4
    Converting field p
    Converting field U

Time = 52.45
    Converting field p
    Converting field U

Time = 52.5
    Converting field p
    Converting field U

Time = 52.55
    Converting field p
    Converting field U

Time = 52.6
    Converting field p
    Converting field U

Time = 52.65
    Converting field p
    Converting field U

Time = 52.7
    Converting field p
    Converting field U

Time = 52.75
    Converting field p
    Converting field U

Time = 52.8
    Converting field p
    Converting field U

Time = 52.85
    Converting field p
    Converting field U

Time = 52.9
    Converting field p
    Converting field U

Time = 52.95
    Converting field p
    Converting field U

Time = 53
    Converting field p
    Converting field U

Time = 53.05
    Converting field p
    Converting field U

Time = 53.1
    Converting field p
    Converting field U

Time = 53.15
    Converting field p
    Converting field U

Time = 53.2
    Converting field p
    Converting field U

Time = 53.25
    Converting field p
    Converting field U

Time = 53.3
    Converting field p
    Converting field U

Time = 53.35
    Converting field p
    Converting field U

Time = 53.4
    Converting field p
    Converting field U

Time = 53.45
    Converting field p
    Converting field U

Time = 53.5
    Converting field p
    Converting field U

Time = 53.55
    Converting field p
    Converting field U

Time = 53.6
    Converting field p
    Converting field U

Time = 53.65
    Converting field p
    Converting field U

Time = 53.7
    Converting field p
    Converting field U

Time = 53.75
    Converting field p
    Converting field U

Time = 53.8
    Converting field p
    Converting field U

Time = 53.85
    Converting field p
    Converting field U

Time = 53.9
    Converting field p
    Converting field U

Time = 53.95
    Converting field p
    Converting field U

Time = 54
    Converting field p
    Converting field U

Time = 54.05
    Converting field p
    Converting field U

Time = 54.1
    Converting field p
    Converting field U

Time = 54.15
    Converting field p
    Converting field U

Time = 54.2
    Converting field p
    Converting field U

Time = 54.25
    Converting field p
    Converting field U

Time = 54.3
    Converting field p
    Converting field U

Time = 54.35
    Converting field p
    Converting field U

Time = 54.4
    Converting field p
    Converting field U

Time = 54.45
    Converting field p
    Converting field U

Time = 54.5
    Converting field p
    Converting field U

Time = 54.55
    Converting field p
    Converting field U

Time = 54.6
    Converting field p
    Converting field U

Time = 54.65
    Converting field p
    Converting field U

Time = 54.7
    Converting field p
    Converting field U

Time = 54.75
    Converting field p
    Converting field U

Time = 54.8
    Converting field p
    Converting field U

Time = 54.85
    Converting field p
    Converting field U

Time = 54.9
    Converting field p
    Converting field U

Time = 54.95
    Converting field p
    Converting field U

Time = 55
    Converting field p
    Converting field U

Time = 55.05
    Converting field p
    Converting field U

Time = 55.1
    Converting field p
    Converting field U

Time = 55.15
    Converting field p
    Converting field U

Time = 55.2
    Converting field p
    Converting field U

Time = 55.25
    Converting field p
    Converting field U

Time = 55.3
    Converting field p
    Converting field U

Time = 55.35
    Converting field p
    Converting field U

Time = 55.4
    Converting field p
    Converting field U

Time = 55.45
    Converting field p
    Converting field U

Time = 55.5
    Converting field p
    Converting field U

Time = 55.55
    Converting field p
    Converting field U

Time = 55.6
    Converting field p
    Converting field U

Time = 55.65
    Converting field p
    Converting field U

Time = 55.7
    Converting field p
    Converting field U

Time = 55.75
    Converting field p
    Converting field U

Time = 55.8
    Converting field p
    Converting field U

Time = 55.85
    Converting field p
    Converting field U

Time = 55.9
    Converting field p
    Converting field U

Time = 55.95
    Converting field p
    Converting field U

Time = 56
    Converting field p
    Converting field U

Time = 56.05
    Converting field p
    Converting field U

Time = 56.1
    Converting field p
    Converting field U

Time = 56.15
    Converting field p
    Converting field U

Time = 56.2
    Converting field p
    Converting field U

Time = 56.25
    Converting field p
    Converting field U

Time = 56.3
    Converting field p
    Converting field U

Time = 56.35
    Converting field p
    Converting field U

Time = 56.4
    Converting field p
    Converting field U

Time = 56.45
    Converting field p
    Converting field U

Time = 56.5
    Converting field p
    Converting field U

Time = 56.55
    Converting field p
    Converting field U

Time = 56.6
    Converting field p
    Converting field U

Time = 56.65
    Converting field p
    Converting field U

Time = 56.7
    Converting field p
    Converting field U

Time = 56.75
    Converting field p
    Converting field U

Time = 56.8
    Converting field p
    Converting field U

Time = 56.85
    Converting field p
    Converting field U

Time = 56.9
    Converting field p
    Converting field U

Time = 56.95
    Converting field p
    Converting field U

Time = 57
    Converting field p
    Converting field U

Time = 57.05
    Converting field p
    Converting field U

Time = 57.1
    Converting field p
    Converting field U

Time = 57.15
    Converting field p
    Converting field U

Time = 57.2
    Converting field p
    Converting field U

Time = 57.25
    Converting field p
    Converting field U

Time = 57.3
    Converting field p
    Converting field U

Time = 57.35
    Converting field p
    Converting field U

Time = 57.4
    Converting field p
    Converting field U

Time = 57.45
    Converting field p
    Converting field U

Time = 57.5
    Converting field p
    Converting field U

Time = 57.55
    Converting field p
    Converting field U

Time = 57.6
    Converting field p
    Converting field U

Time = 57.65
    Converting field p
    Converting field U

Time = 57.7
    Converting field p
    Converting field U

Time = 57.75
    Converting field p
    Converting field U

Time = 57.8
    Converting field p
    Converting field U

Time = 57.85
    Converting field p
    Converting field U

Time = 57.9
    Converting field p
    Converting field U

Time = 57.95
    Converting field p
    Converting field U

Time = 58
    Converting field p
    Converting field U

Time = 58.05
    Converting field p
    Converting field U

Time = 58.1
    Converting field p
    Converting field U

Time = 58.15
    Converting field p
    Converting field U

Time = 58.2
    Converting field p
    Converting field U

Time = 58.25
    Converting field p
    Converting field U

Time = 58.3
    Converting field p
    Converting field U

Time = 58.35
    Converting field p
    Converting field U

Time = 58.4
    Converting field p
    Converting field U

Time = 58.45
    Converting field p
    Converting field U

Time = 58.5
    Converting field p
    Converting field U

Time = 58.55
    Converting field p
    Converting field U

Time = 58.6
    Converting field p
    Converting field U

Time = 58.65
    Converting field p
    Converting field U

Time = 58.7
    Converting field p
    Converting field U

Time = 58.75
    Converting field p
    Converting field U

Time = 58.8
    Converting field p
    Converting field U

Time = 58.85
    Converting field p
    Converting field U

Time = 58.9
    Converting field p
    Converting field U

Time = 58.95
    Converting field p
    Converting field U

Time = 59
    Converting field p
    Converting field U

Time = 59.05
    Converting field p
    Converting field U

Time = 59.1
    Converting field p
    Converting field U

Time = 59.15
    Converting field p
    Converting field U

Time = 59.2
    Converting field p
    Converting field U

Time = 59.25
    Converting field p
    Converting field U

Time = 59.3
    Converting field p
    Converting field U

Time = 59.35
    Converting field p
    Converting field U

Time = 59.4
    Converting field p
    Converting field U

Time = 59.45
    Converting field p
    Converting field U

Time = 59.5
    Converting field p
    Converting field U

Time = 59.55
    Converting field p
    Converting field U

Time = 59.6
    Converting field p
    Converting field U

Time = 59.65
    Converting field p
    Converting field U

Time = 59.7
    Converting field p
    Converting field U

Time = 59.75
    Converting field p
    Converting field U

Time = 59.8
    Converting field p
    Converting field U

Time = 59.85
    Converting field p
    Converting field U

Time = 59.9
    Converting field p
    Converting field U

Time = 59.95
    Converting field p
    Converting field U

Time = 60
    Converting field p
    Converting field U

Time = 60.05
    Converting field p
    Converting field U

Time = 60.1
    Converting field p
    Converting field U

Time = 60.15
    Converting field p
    Converting field U

Time = 60.2
    Converting field p
    Converting field U

Time = 60.25
    Converting field p
    Converting field U

Time = 60.3
    Converting field p
    Converting field U

Time = 60.35
    Converting field p
    Converting field U

Time = 60.4
    Converting field p
    Converting field U

Time = 60.45
    Converting field p
    Converting field U

Time = 60.5
    Converting field p
    Converting field U

Time = 60.55
    Converting field p
    Converting field U

Time = 60.6
    Converting field p
    Converting field U

Time = 60.65
    Converting field p
    Converting field U

Time = 60.7
    Converting field p
    Converting field U

Time = 60.75
    Converting field p
    Converting field U

Time = 60.8
    Converting field p
    Converting field U

Time = 60.85
    Converting field p
    Converting field U

Time = 60.9
    Converting field p
    Converting field U

Time = 60.95
    Converting field p
    Converting field U

Time = 61
    Converting field p
    Converting field U

Time = 61.05
    Converting field p
    Converting field U

Time = 61.1
    Converting field p
    Converting field U

Time = 61.15
    Converting field p
    Converting field U

Time = 61.2
    Converting field p
    Converting field U

Time = 61.25
    Converting field p
    Converting field U

Time = 61.3
    Converting field p
    Converting field U

Time = 61.35
    Converting field p
    Converting field U

Time = 61.4
    Converting field p
    Converting field U

Time = 61.45
    Converting field p
    Converting field U

Time = 61.5
    Converting field p
    Converting field U

Time = 61.55
    Converting field p
    Converting field U

Time = 61.6
    Converting field p
    Converting field U

Time = 61.65
    Converting field p
    Converting field U

Time = 61.7
    Converting field p
    Converting field U

Time = 61.75
    Converting field p
    Converting field U

Time = 61.8
    Converting field p
    Converting field U

Time = 61.85
    Converting field p
    Converting field U

Time = 61.9
    Converting field p
    Converting field U

Time = 61.95
    Converting field p
    Converting field U

Time = 62
    Converting field p
    Converting field U

Time = 62.05
    Converting field p
    Converting field U

Time = 62.1
    Converting field p
    Converting field U

Time = 62.15
    Converting field p
    Converting field U

Time = 62.2
    Converting field p
    Converting field U

Time = 62.25
    Converting field p
    Converting field U

Time = 62.3
    Converting field p
    Converting field U

Time = 62.35
    Converting field p
    Converting field U

Time = 62.4
    Converting field p
    Converting field U

Time = 62.45
    Converting field p
    Converting field U

Time = 62.5
    Converting field p
    Converting field U

Time = 62.55
    Converting field p
    Converting field U

Time = 62.6
    Converting field p
    Converting field U

Time = 62.65
    Converting field p
    Converting field U

Time = 62.7
    Converting field p
    Converting field U

Time = 62.75
    Converting field p
    Converting field U

Time = 62.8
    Converting field p
    Converting field U

Time = 62.85
    Converting field p
    Converting field U

Time = 62.9
    Converting field p
    Converting field U

Time = 62.95
    Converting field p
    Converting field U

Time = 63
    Converting field p
    Converting field U

Time = 63.05
    Converting field p
    Converting field U

Time = 63.1
    Converting field p
    Converting field U

Time = 63.15
    Converting field p
    Converting field U

Time = 63.2
    Converting field p
    Converting field U

Time = 63.25
    Converting field p
    Converting field U

Time = 63.3
    Converting field p
    Converting field U

Time = 63.35
    Converting field p
    Converting field U

Time = 63.4
    Converting field p
    Converting field U

Time = 63.45
    Converting field p
    Converting field U

Time = 63.5
    Converting field p
    Converting field U

Time = 63.55
    Converting field p
    Converting field U

Time = 63.6
    Converting field p
    Converting field U

Time = 63.65
    Converting field p
    Converting field U

Time = 63.7
    Converting field p
    Converting field U

Time = 63.75
    Converting field p
    Converting field U

Time = 63.8
    Converting field p
    Converting field U

Time = 63.85
    Converting field p
    Converting field U

Time = 63.9
    Converting field p
    Converting field U

Time = 63.95
    Converting field p
    Converting field U

Time = 64
    Converting field p
    Converting field U

Time = 64.05
    Converting field p
    Converting field U

Time = 64.1
    Converting field p
    Converting field U

Time = 64.15
    Converting field p
    Converting field U

Time = 64.2
    Converting field p
    Converting field U

Time = 64.25
    Converting field p
    Converting field U

Time = 64.3
    Converting field p
    Converting field U

Time = 64.35
    Converting field p
    Converting field U

Time = 64.4
    Converting field p
    Converting field U

Time = 64.45
    Converting field p
    Converting field U

Time = 64.5
    Converting field p
    Converting field U

Time = 64.55
    Converting field p
    Converting field U

Time = 64.6
    Converting field p
    Converting field U

Time = 64.65
    Converting field p
    Converting field U

Time = 64.7
    Converting field p
    Converting field U

Time = 64.75
    Converting field p
    Converting field U

Time = 64.8
    Converting field p
    Converting field U

Time = 64.85
    Converting field p
    Converting field U

Time = 64.9
    Converting field p
    Converting field U

Time = 64.95
    Converting field p
    Converting field U

Time = 65
    Converting field p
    Converting field U

Time = 65.05
    Converting field p
    Converting field U

Time = 65.1
    Converting field p
    Converting field U

Time = 65.15
    Converting field p
    Converting field U

Time = 65.2
    Converting field p
    Converting field U

Time = 65.25
    Converting field p
    Converting field U

Time = 65.3
    Converting field p
    Converting field U

Time = 65.35
    Converting field p
    Converting field U

Time = 65.4
    Converting field p
    Converting field U

Time = 65.45
    Converting field p
    Converting field U

Time = 65.5
    Converting field p
    Converting field U

Time = 65.55
    Converting field p
    Converting field U

Time = 65.6
    Converting field p
    Converting field U

Time = 65.65
    Converting field p
    Converting field U

Time = 65.7
    Converting field p
    Converting field U

Time = 65.75
    Converting field p
    Converting field U

Time = 65.8
    Converting field p
    Converting field U

Time = 65.85
    Converting field p
    Converting field U

Time = 65.9
    Converting field p
    Converting field U

Time = 65.95
    Converting field p
    Converting field U

Time = 66
    Converting field p
    Converting field U

Time = 66.05
    Converting field p
    Converting field U

Time = 66.1
    Converting field p
    Converting field U

Time = 66.15
    Converting field p
    Converting field U

Time = 66.2
    Converting field p
    Converting field U

Time = 66.25
    Converting field p
    Converting field U

Time = 66.3
    Converting field p
    Converting field U

Time = 66.35
    Converting field p
    Converting field U

Time = 66.4
    Converting field p
    Converting field U

Time = 66.45
    Converting field p
    Converting field U

Time = 66.5
    Converting field p
    Converting field U

Time = 66.55
    Converting field p
    Converting field U

Time = 66.6
    Converting field p
    Converting field U

Time = 66.65
    Converting field p
[...]
    Converting field p
    Converting field U

Time = 308.9
    Converting field p
    Converting field U

Time = 308.95
    Converting field p
    Converting field U

Time = 309
    Converting field p
    Converting field U

Time = 309.05
    Converting field p
    Converting field U

Time = 309.1
    Converting field p
    Converting field U

Time = 309.15
    Converting field p
    Converting field U

Time = 309.2
    Converting field p
    Converting field U

Time = 309.25
    Converting field p
    Converting field U

Time = 309.3
    Converting field p
    Converting field U

Time = 309.35
    Converting field p
    Converting field U

Time = 309.4
    Converting field p
    Converting field U

Time = 309.45
    Converting field p
    Converting field U

Time = 309.5
    Converting field p
    Converting field U

Time = 309.55
    Converting field p
    Converting field U

Time = 309.6
    Converting field p
    Converting field U

Time = 309.65
    Converting field p
    Converting field U

Time = 309.7
    Converting field p
    Converting field U

Time = 309.75
    Converting field p
    Converting field U

Time = 309.8
    Converting field p
    Converting field U

Time = 309.85
    Converting field p
    Converting field U

Time = 309.9
    Converting field p
    Converting field U

Time = 309.95
    Converting field p
    Converting field U

Time = 310
    Converting field p
    Converting field U

Time = 310.05
    Converting field p
    Converting field U

Time = 310.1
    Converting field p
    Converting field U

Time = 310.15
    Converting field p
    Converting field U

Time = 310.2
    Converting field p
    Converting field U

Time = 310.25
    Converting field p
    Converting field U

Time = 310.3
    Converting field p
    Converting field U

Time = 310.35
    Converting field p
    Converting field U

Time = 310.4
    Converting field p
    Converting field U

Time = 310.45
    Converting field p
    Converting field U

Time = 310.5
    Converting field p
    Converting field U

Time = 310.55
    Converting field p
    Converting field U

Time = 310.6
    Converting field p
    Converting field U

Time = 310.65
    Converting field p
    Converting field U

Time = 310.7
    Converting field p
    Converting field U

Time = 310.75
    Converting field p
    Converting field U

Time = 310.8
    Converting field p
    Converting field U

Time = 310.85
    Converting field p
    Converting field U

Time = 310.9
    Converting field p
    Converting field U

Time = 310.95
    Converting field p
    Converting field U

Time = 311
    Converting field p
    Converting field U

Time = 311.05
    Converting field p
    Converting field U

Time = 311.1
    Converting field p
    Converting field U

Time = 311.15
    Converting field p
    Converting field U

Time = 311.2
    Converting field p
    Converting field U

Time = 311.25
    Converting field p
    Converting field U

Time = 311.3
    Converting field p
    Converting field U

Time = 311.35
    Converting field p
    Converting field U

Time = 311.4
    Converting field p
    Converting field U

Time = 311.45
    Converting field p
    Converting field U

Time = 311.5
    Converting field p
    Converting field U

Time = 311.55
    Converting field p
    Converting field U

Time = 311.6
    Converting field p
    Converting field U

Time = 311.65
    Converting field p
    Converting field U

Time = 311.7
    Converting field p
    Converting field U

Time = 311.75
    Converting field p
    Converting field U

Time = 311.8
    Converting field p
    Converting field U

Time = 311.85
    Converting field p
    Converting field U

Time = 311.9
    Converting field p
    Converting field U

Time = 311.95
    Converting field p
    Converting field U

Time = 312
    Converting field p
    Converting field U

Time = 312.05
    Converting field p
    Converting field U

Time = 312.1
    Converting field p
    Converting field U

Time = 312.15
    Converting field p
    Converting field U

Time = 312.2
    Converting field p
    Converting field U

Time = 312.25
    Converting field p
    Converting field U

Time = 312.3
    Converting field p
    Converting field U

Time = 312.35
    Converting field p
    Converting field U

Time = 312.4
    Converting field p
    Converting field U

Time = 312.45
    Converting field p
    Converting field U

Time = 312.5
    Converting field p
    Converting field U

Time = 312.55
    Converting field p
    Converting field U

Time = 312.6
    Converting field p
    Converting field U

Time = 312.65
    Converting field p
    Converting field U

Time = 312.7
    Converting field p
    Converting field U

Time = 312.75
    Converting field p
    Converting field U

Time = 312.8
    Converting field p
    Converting field U

Time = 312.85
    Converting field p
    Converting field U

Time = 312.9
    Converting field p
    Converting field U

Time = 312.95
    Converting field p
    Converting field U

Time = 313
    Converting field p
    Converting field U

Time = 313.05
    Converting field p
    Converting field U

Time = 313.1
    Converting field p
    Converting field U

Time = 313.15
    Converting field p
    Converting field U

Time = 313.2
    Converting field p
    Converting field U

Time = 313.25
    Converting field p
    Converting field U

Time = 313.3
    Converting field p
    Converting field U

Time = 313.35
    Converting field p
    Converting field U

Time = 313.4
    Converting field p
    Converting field U

Time = 313.45
    Converting field p
    Converting field U

Time = 313.5
    Converting field p
    Converting field U

Time = 313.55
    Converting field p
    Converting field U

Time = 313.6
    Converting field p
    Converting field U

Time = 313.65
    Converting field p
    Converting field U

Time = 313.7
    Converting field p
    Converting field U

Time = 313.75
    Converting field p
    Converting field U

Time = 313.8
    Converting field p
    Converting field U

Time = 313.85
    Converting field p
    Converting field U

Time = 313.9
    Converting field p
    Converting field U

Time = 313.95
    Converting field p
    Converting field U

Time = 314
    Converting field p
    Converting field U

Time = 314.05
    Converting field p
    Converting field U

Time = 314.1
    Converting field p
    Converting field U

Time = 314.15
    Converting field p
    Converting field U

Time = 314.2
    Converting field p
    Converting field U

Time = 314.25
    Converting field p
    Converting field U

Time = 314.3
    Converting field p
    Converting field U

Time = 314.35
    Converting field p
    Converting field U

Time = 314.4
    Converting field p
    Converting field U

Time = 314.45
    Converting field p
    Converting field U

Time = 314.5
    Converting field p
    Converting field U

Time = 314.55
    Converting field p
    Converting field U

Time = 314.6
    Converting field p
    Converting field U

Time = 314.65
    Converting field p
    Converting field U

Time = 314.7
    Converting field p
    Converting field U

Time = 314.75
    Converting field p
    Converting field U

Time = 314.8
    Converting field p
    Converting field U

Time = 314.85
    Converting field p
    Converting field U

Time = 314.9
    Converting field p
    Converting field U

Time = 314.95
    Converting field p
    Converting field U

Time = 315
    Converting field p
    Converting field U

Time = 315.05
    Converting field p
    Converting field U

Time = 315.1
    Converting field p
    Converting field U

Time = 315.15
    Converting field p
    Converting field U

Time = 315.2
    Converting field p
    Converting field U

Time = 315.25
    Converting field p
    Converting field U

Time = 315.3
    Converting field p
    Converting field U

Time = 315.35
    Converting field p
    Converting field U

Time = 315.4
    Converting field p
    Converting field U

Time = 315.45
    Converting field p
    Converting field U

Time = 315.5
    Converting field p
    Converting field U

Time = 315.55
    Converting field p
    Converting field U

Time = 315.6
    Converting field p
    Converting field U

Time = 315.65
    Converting field p
    Converting field U

Time = 315.7
    Converting field p
    Converting field U

Time = 315.75
    Converting field p
    Converting field U

Time = 315.8
    Converting field p
    Converting field U

Time = 315.85
    Converting field p
    Converting field U

Time = 315.9
    Converting field p
    Converting field U

Time = 315.95
    Converting field p
    Converting field U

Time = 316
    Converting field p
    Converting field U

Time = 316.05
    Converting field p
    Converting field U

Time = 316.1
    Converting field p
    Converting field U

Time = 316.15
    Converting field p
    Converting field U

Time = 316.2
    Converting field p
    Converting field U

Time = 316.25
    Converting field p
    Converting field U

Time = 316.3
    Converting field p
    Converting field U

Time = 316.35
    Converting field p
    Converting field U

Time = 316.4
    Converting field p
    Converting field U

Time = 316.45
    Converting field p
    Converting field U

Time = 316.5
    Converting field p
    Converting field U

Time = 316.55
    Converting field p
    Converting field U

Time = 316.6
    Converting field p
    Converting field U

Time = 316.65
    Converting field p
    Converting field U

Time = 316.7
    Converting field p
    Converting field U

Time = 316.75
    Converting field p
    Converting field U

Time = 316.8
    Converting field p
    Converting field U

Time = 316.85
    Converting field p
    Converting field U

Time = 316.9
    Converting field p
    Converting field U

Time = 316.95
    Converting field p
    Converting field U

Time = 317
    Converting field p
    Converting field U

Time = 317.05
    Converting field p
    Converting field U

Time = 317.1
    Converting field p
    Converting field U

Time = 317.15
    Converting field p
    Converting field U

Time = 317.2
    Converting field p
    Converting field U

Time = 317.25
    Converting field p
    Converting field U

Time = 317.3
    Converting field p
    Converting field U

Time = 317.35
    Converting field p
    Converting field U

Time = 317.4
    Converting field p
    Converting field U

Time = 317.45
    Converting field p
    Converting field U

Time = 317.5
    Converting field p
    Converting field U

Time = 317.55
    Converting field p
    Converting field U

Time = 317.6
    Converting field p
    Converting field U

Time = 317.65
    Converting field p
    Converting field U

Time = 317.7
    Converting field p
    Converting field U

Time = 317.75
    Converting field p
    Converting field U

Time = 317.8
    Converting field p
    Converting field U

Time = 317.85
    Converting field p
    Converting field U

Time = 317.9
    Converting field p
    Converting field U

Time = 317.95
    Converting field p
    Converting field U

Time = 318
    Converting field p
    Converting field U

Time = 318.05
    Converting field p
    Converting field U

Time = 318.1
    Converting field p
    Converting field U

Time = 318.15
    Converting field p
    Converting field U

Time = 318.2
    Converting field p
    Converting field U

Time = 318.25
    Converting field p
    Converting field U

Time = 318.3
    Converting field p
    Converting field U

Time = 318.35
    Converting field p
    Converting field U

Time = 318.4
    Converting field p
    Converting field U

Time = 318.45
    Converting field p
    Converting field U

Time = 318.5
    Converting field p
    Converting field U

Time = 318.55
    Converting field p
    Converting field U

Time = 318.6
    Converting field p
    Converting field U

Time = 318.65
    Converting field p
    Converting field U

Time = 318.7
    Converting field p
    Converting field U

Time = 318.75
    Converting field p
    Converting field U

Time = 318.8
    Converting field p
    Converting field U

Time = 318.85
    Converting field p
    Converting field U

Time = 318.9
    Converting field p
    Converting field U

Time = 318.95
    Converting field p
    Converting field U

Time = 319
    Converting field p
    Converting field U

Time = 319.05
    Converting field p
    Converting field U

Time = 319.1
    Converting field p
    Converting field U

Time = 319.15
    Converting field p
    Converting field U

Time = 319.2
    Converting field p
    Converting field U

Time = 319.25
    Converting field p
    Converting field U

Time = 319.3
    Converting field p
    Converting field U

Time = 319.35
    Converting field p
    Converting field U

Time = 319.4
    Converting field p
    Converting field U

Time = 319.45
    Converting field p
    Converting field U

Time = 319.5
    Converting field p
    Converting field U

Time = 319.55
    Converting field p
    Converting field U

Time = 319.6
    Converting field p
    Converting field U

Time = 319.65
    Converting field p
    Converting field U

Time = 319.7
    Converting field p
    Converting field U

Time = 319.75
    Converting field p
    Converting field U

Time = 319.8
    Converting field p
    Converting field U

Time = 319.85
    Converting field p
    Converting field U

Time = 319.9
    Converting field p
    Converting field U

Time = 319.95
    Converting field p
    Converting field U

Time = 320
    Converting field p
    Converting field U

Time = 320.05
    Converting field p
    Converting field U

Time = 320.1
    Converting field p
    Converting field U

Time = 320.15
    Converting field p
    Converting field U

Time = 320.2
    Converting field p
    Converting field U

Time = 320.25
    Converting field p
    Converting field U

Time = 320.3
    Converting field p
    Converting field U

Time = 320.35
    Converting field p
    Converting field U

Time = 320.4
    Converting field p
    Converting field U

Time = 320.45
    Converting field p
    Converting field U

Time = 320.5
    Converting field p
    Converting field U

Time = 320.55
    Converting field p
    Converting field U

Time = 320.6
    Converting field p
    Converting field U

Time = 320.65
    Converting field p
    Converting field U

Time = 320.7
    Converting field p
    Converting field U

Time = 320.75
    Converting field p
    Converting field U

Time = 320.8
    Converting field p
    Converting field U

Time = 320.85
    Converting field p
    Converting field U

Time = 320.9
    Converting field p
    Converting field U

Time = 320.95
    Converting field p
    Converting field U

Time = 321
    Converting field p
    Converting field U

Time = 321.05
    Converting field p
    Converting field U

Time = 321.1
    Converting field p
    Converting field U

Time = 321.15
    Converting field p
    Converting field U

Time = 321.2
    Converting field p
    Converting field U

Time = 321.25
    Converting field p
    Converting field U

Time = 321.3
    Converting field p
    Converting field U

Time = 321.35
    Converting field p
    Converting field U

Time = 321.4
    Converting field p
    Converting field U

Time = 321.45
    Converting field p
    Converting field U

Time = 321.5
    Converting field p
    Converting field U

Time = 321.55
    Converting field p
    Converting field U

Time = 321.6
    Converting field p
    Converting field U

Time = 321.65
    Converting field p
    Converting field U

Time = 321.7
    Converting field p
    Converting field U

Time = 321.75
    Converting field p
    Converting field U

Time = 321.8
    Converting field p
    Converting field U

Time = 321.85
    Converting field p
    Converting field U

Time = 321.9
    Converting field p
    Converting field U

Time = 321.95
    Converting field p
    Converting field U

Time = 322
    Converting field p
    Converting field U

Time = 322.05
    Converting field p
    Converting field U

Time = 322.1
    Converting field p
    Converting field U

Time = 322.15
    Converting field p
    Converting field U

Time = 322.2
    Converting field p
    Converting field U

Time = 322.25
    Converting field p
    Converting field U

Time = 322.3
    Converting field p
    Converting field U

Time = 322.35
    Converting field p
    Converting field U

Time = 322.4
    Converting field p
    Converting field U

Time = 322.45
    Converting field p
    Converting field U

Time = 322.5
    Converting field p
    Converting field U

Time = 322.55
    Converting field p
    Converting field U

Time = 322.6
    Converting field p
    Converting field U

Time = 322.65
    Converting field p
    Converting field U

Time = 322.7
    Converting field p
    Converting field U

Time = 322.75
    Converting field p
    Converting field U

Time = 322.8
    Converting field p
    Converting field U

Time = 322.85
    Converting field p
    Converting field U

Time = 322.9
    Converting field p
    Converting field U

Time = 322.95
    Converting field p
    Converting field U

Time = 323
    Converting field p
    Converting field U

Time = 323.05
    Converting field p
    Converting field U

Time = 323.1
    Converting field p
    Converting field U

Time = 323.15
    Converting field p
    Converting field U

Time = 323.2
    Converting field p
    Converting field U

Time = 323.25
    Converting field p
    Converting field U

Time = 323.3
    Converting field p
    Converting field U

Time = 323.35
    Converting field p
    Converting field U

Time = 323.4
    Converting field p
    Converting field U

Time = 323.45
    Converting field p
    Converting field U

Time = 323.5
    Converting field p
    Converting field U

Time = 323.55
    Converting field p
    Converting field U

Time = 323.6
    Converting field p
    Converting field U

Time = 323.65
    Converting field p
    Converting field U

Time = 323.7
    Converting field p
    Converting field U

Time = 323.75
    Converting field p
    Converting field U

Time = 323.8
    Converting field p
    Converting field U

Time = 323.85
    Converting field p
    Converting field U

Time = 323.9
    Converting field p
    Converting field U

Time = 323.95
    Converting field p
    Converting field U

Time = 324
    Converting field p
    Converting field U

Time = 324.05
    Converting field p
    Converting field U

Time = 324.1
    Converting field p
    Converting field U

Time = 324.15
    Converting field p
    Converting field U

Time = 324.2
    Converting field p
    Converting field U

Time = 324.25
    Converting field p
    Converting field U

Time = 324.3
    Converting field p
    Converting field U

Time = 324.35
    Converting field p
    Converting field U

Time = 324.4
    Converting field p
    Converting field U

Time = 324.45
    Converting field p
    Converting field U

Time = 324.5
    Converting field p
    Converting field U

Time = 324.55
    Converting field p
    Converting field U

Time = 324.6
    Converting field p
    Converting field U

Time = 324.65
    Converting field p
    Converting field U

Time = 324.7
    Converting field p
    Converting field U

Time = 324.75
    Converting field p
    Converting field U

Time = 324.8
    Converting field p
    Converting field U

Time = 324.85
    Converting field p
    Converting field U

Time = 324.9
    Converting field p
    Converting field U

Time = 324.95
    Converting field p
    Converting field U

Time = 325
    Converting field p
    Converting field U

Time = 325.05
    Converting field p
    Converting field U

Time = 325.1
    Converting field p
    Converting field U

Time = 325.15
    Converting field p
    Converting field U

Time = 325.2
    Converting field p
    Converting field U

Time = 325.25
    Converting field p
    Converting field U

Time = 325.3
    Converting field p
    Converting field U

Time = 325.35
    Converting field p
    Converting field U

Time = 325.4
