/*---------------------------------------------------------------------------*\
  =========                 |
  \\      /  F ield         | OpenFOAM: The Open Source CFD Toolbox
   \\    /   O peration     | Website:  https://openfoam.org
    \\  /    A nd           | Version:  9
     \\/     M anipulation  |
\*---------------------------------------------------------------------------*/
Build  : 9-b456138dc4bc
Exec   : interFoam
Date   : Dec 05 2021
Time   : 17:34:04
Host   : "pc"
PID    : 12599
I/O    : uncollated
Case   : /home/tw/OpenFOAM/tw-9/run/proyecto00/Curso-CFD-con-OpenFOAM-para-Principiantes-e-Intermedios/06-interFoam/laminar/damBreak/damBreak
nProcs : 1
sigFpe : Enabling floating point exception trapping (FOAM_SIGFPE).
fileModificationChecking : Monitoring run-time modified files using timeStampMaster (fileModificationSkew 10)
allowSystemOperations : Allowing user-supplied system call operations

// * * * * * * * * * * * * * * * * * * * * * * * * * * * * * * * * * * * * * //
Create time

Create mesh for time = 0


PIMPLE: No convergence criteria found


PIMPLE: Operating solver in transient mode with 1 outer corrector
PIMPLE: Operating solver in PISO mode


Reading field p_rgh

Reading field U

Reading/calculating face flux field phi

Reading transportProperties

Selecting incompressible transport model Newtonian
Selecting incompressible transport model Newtonian
No phase change: phaseChangeProperties not found
Selecting phaseChange model none
Selecting turbulence model type laminar
Selecting laminar stress model Stokes

Reading g

Reading hRef
Calculating field g.h

No MRF models present

No fvModels present
No fvConstraints present
DICPCG:  Solving for pcorr, Initial residual = 0, Final residual = 0, No Iterations 0
time step continuity errors : sum local = 0, global = 0, cumulative = 0
Courant Number mean: 0 max: 0

Starting time loop

Courant Number mean: 0 max: 0
Interface Courant Number mean: 0 max: 0
deltaT = 0.00119048
Time = 0.00119048

smoothSolver:  Solving for alpha.water, Initial residual = 0, Final residual = 0, No Iterations 0
Phase-1 volume fraction = 0.130194  Min(alpha.water) = 0  Max(alpha.water) = 1
MULES: Correcting alpha.water
MULES: Correcting alpha.water
Phase-1 volume fraction = 0.130194  Min(alpha.water) = 0  Max(alpha.water) = 1
DICPCG:  Solving for p_rgh, Initial residual = 1, Final residual = 0.00312169, No Iterations 1
time step continuity errors : sum local = 0.000863663, global = -1.26728e-12, cumulative = -1.26728e-12
DICPCG:  Solving for p_rgh, Initial residual = 0.00146342, Final residual = 6.18289e-05, No Iterations 13
time step continuity errors : sum local = 3.6494e-05, global = -1.00159e-05, cumulative = -1.00159e-05
DICPCG:  Solving for p_rgh, Initial residual = 5.08541e-05, Final residual = 8.19126e-08, No Iterations 48
time step continuity errors : sum local = 5.88485e-08, global = 1.01685e-08, cumulative = -1.00057e-05
ExecutionTime = 0.05 s  ClockTime = 0 s

Courant Number mean: 0.00124881 max: 0.107249
Interface Courant Number mean: 0 max: 0
deltaT = 0.00139456
Time = 0.00258503

smoothSolver:  Solving for alpha.water, Initial residual = 0.000282089, Final residual = 1.76373e-12, No Iterations 2
Phase-1 volume fraction = 0.130194  Min(alpha.water) = 0  Max(alpha.water) = 1
MULES: Correcting alpha.water
MULES: Correcting alpha.water
Phase-1 volume fraction = 0.130194  Min(alpha.water) = -5.03951e-13  Max(alpha.water) = 1
DICPCG:  Solving for p_rgh, Initial residual = 0.00309661, Final residual = 0.000102236, No Iterations 2
time step continuity errors : sum local = 8.64758e-05, global = 2.84026e-08, cumulative = -9.97728e-06
DICPCG:  Solving for p_rgh, Initial residual = 0.000212023, Final residual = 9.21985e-06, No Iterations 35
time step continuity errors : sum local = 7.80236e-06, global = -8.6021e-08, cumulative = -1.00633e-05
DICPCG:  Solving for p_rgh, Initial residual = 2.94077e-05, Final residual = 9.59894e-08, No Iterations 43
time step continuity errors : sum local = 8.12032e-08, global = 5.63708e-09, cumulative = -1.00577e-05
ExecutionTime = 0.08 s  ClockTime = 0 s

Courant Number mean: 0.00181517 max: 0.0549799
Interface Courant Number mean: 4.99695e-05 max: 0.0549799
deltaT = 0.001635
Time = 0.00422003

smoothSolver:  Solving for alpha.water, Initial residual = 0.000190547, Final residual = 8.84873e-09, No Iterations 1
Phase-1 volume fraction = 0.130194  Min(alpha.water) = 0  Max(alpha.water) = 1
MULES: Correcting alpha.water
MULES: Correcting alpha.water
Phase-1 volume fraction = 0.130194  Min(alpha.water) = -7.46785e-19  Max(alpha.water) = 1
DICPCG:  Solving for p_rgh, Initial residual = 0.00263042, Final residual = 6.10165e-05, No Iterations 2
time step continuity errors : sum local = 6.43554e-05, global = 9.58068e-11, cumulative = -1.00576e-05
DICPCG:  Solving for p_rgh, Initial residual = 6.18716e-05, Final residual = 2.43967e-06, No Iterations 36
time step continuity errors : sum local = 2.5715e-06, global = 3.13347e-09, cumulative = -1.00544e-05
DICPCG:  Solving for p_rgh, Initial residual = 2.89514e-06, Final residual = 7.08246e-08, No Iterations 19
time step continuity errors : sum local = 7.46995e-08, global = -5.59347e-09, cumulative = -1.006e-05
ExecutionTime = 0.11 s  ClockTime = 0 s

Courant Number mean: 0.00313751 max: 0.0514761
Interface Courant Number mean: 4.24577e-05 max: 0.0434266
deltaT = 0.0019075
Time = 0.00612753

smoothSolver:  Solving for alpha.water, Initial residual = 0.000225848, Final residual = 6.92496e-14, No Iterations 2
Phase-1 volume fraction = 0.130194  Min(alpha.water) = 0  Max(alpha.water) = 1
MULES: Correcting alpha.water
MULES: Correcting alpha.water
Phase-1 volume fraction = 0.130194  Min(alpha.water) = -3.89444e-18  Max(alpha.water) = 1
DICPCG:  Solving for p_rgh, Initial residual = 0.00331875, Final residual = 0.000146594, No Iterations 1
time step continuity errors : sum local = 0.00019341, global = -1.68138e-08, cumulative = -1.00768e-05
DICPCG:  Solving for p_rgh, Initial residual = 0.00014949, Final residual = 6.72959e-06, No Iterations 10
time step continuity errors : sum local = 8.86369e-06, global = -3.68799e-07, cumulative = -1.04456e-05
DICPCG:  Solving for p_rgh, Initial residual = 7.14072e-06, Final residual = 8.86897e-08, No Iterations 37
time step continuity errors : sum local = 1.16847e-07, global = -1.05645e-08, cumulative = -1.04562e-05
ExecutionTime = 0.13 s  ClockTime = 0 s

Courant Number mean: 0.00514177 max: 0.0598769
Interface Courant Number mean: 0.00013206 max: 0.0475141
deltaT = 0.00219362
Time = 0.00832115

smoothSolver:  Solving for alpha.water, Initial residual = 0.000321738, Final residual = 4.24711e-13, No Iterations 2
Phase-1 volume fraction = 0.130194  Min(alpha.water) = 0  Max(alpha.water) = 1
MULES: Correcting alpha.water
MULES: Correcting alpha.water
Phase-1 volume fraction = 0.130194  Min(alpha.water) = -2.46482e-12  Max(alpha.water) = 1
DICPCG:  Solving for p_rgh, Initial residual = 0.00488184, Final residual = 0.000156238, No Iterations 1
time step continuity errors : sum local = 0.000256133, global = -7.23845e-09, cumulative = -1.04634e-05
DICPCG:  Solving for p_rgh, Initial residual = 0.000158947, Final residual = 7.43913e-06, No Iterations 9
time step continuity errors : sum local = 1.21583e-05, global = -5.64734e-08, cumulative = -1.05199e-05
DICPCG:  Solving for p_rgh, Initial residual = 8.05204e-06, Final residual = 9.05799e-08, No Iterations 37
time step continuity errors : sum local = 1.4809e-07, global = 1.91186e-09, cumulative = -1.0518e-05
ExecutionTime = 0.16 s  ClockTime = 0 s

Courant Number mean: 0.00792357 max: 0.0731999
Interface Courant Number mean: 0.000283208 max: 0.0659558
deltaT = 0.00260493
Time = 0.0109261

smoothSolver:  Solving for alpha.water, Initial residual = 0.000479668, Final residual = 2.41052e-12, No Iterations 2
Phase-1 volume fraction = 0.130194  Min(alpha.water) = 0  Max(alpha.water) = 1
MULES: Correcting alpha.water
MULES: Correcting alpha.water
Phase-1 volume fraction = 0.130194  Min(alpha.water) = -1.04017e-10  Max(alpha.water) = 1
DICPCG:  Solving for p_rgh, Initial residual = 0.00740584, Final residual = 0.000178225, No Iterations 1
time step continuity errors : sum local = 0.000392407, global = 4.00424e-08, cumulative = -1.0478e-05
DICPCG:  Solving for p_rgh, Initial residual = 0.000180775, Final residual = 8.48865e-06, No Iterations 9
time step continuity errors : sum local = 1.8596e-05, global = 9.72238e-08, cumulative = -1.03807e-05
DICPCG:  Solving for p_rgh, Initial residual = 9.89237e-06, Final residual = 9.3502e-08, No Iterations 37
time step continuity errors : sum local = 2.04929e-07, global = 5.08343e-09, cumulative = -1.03757e-05
ExecutionTime = 0.18 s  ClockTime = 0 s

Courant Number mean: 0.0122488 max: 0.0986236
Interface Courant Number mean: 0.000490968 max: 0.0986236
deltaT = 0.00300569
Time = 0.0139318

smoothSolver:  Solving for alpha.water, Initial residual = 0.0006916, Final residual = 1.10377e-11, No Iterations 2
Phase-1 volume fraction = 0.130194  Min(alpha.water) = 0  Max(alpha.water) = 1
MULES: Correcting alpha.water
MULES: Correcting alpha.water
Phase-1 volume fraction = 0.130194  Min(alpha.water) = -3.63461e-10  Max(alpha.water) = 1
DICPCG:  Solving for p_rgh, Initial residual = 0.0108356, Final residual = 0.00020058, No Iterations 1
time step continuity errors : sum local = 0.000564387, global = 4.49903e-08, cumulative = -1.03307e-05
DICPCG:  Solving for p_rgh, Initial residual = 0.000203422, Final residual = 9.6639e-06, No Iterations 10
time step continuity errors : sum local = 2.69998e-05, global = 2.82026e-07, cumulative = -1.00486e-05
DICPCG:  Solving for p_rgh, Initial residual = 1.2404e-05, Final residual = 9.0598e-08, No Iterations 36
time step continuity errors : sum local = 2.53334e-07, global = -1.52757e-09, cumulative = -1.00502e-05
ExecutionTime = 0.2 s  ClockTime = 0 s

Courant Number mean: 0.0179228 max: 0.142528
Interface Courant Number mean: 0.000788545 max: 0.142528
deltaT = 0.00360682
Time = 0.0175386

smoothSolver:  Solving for alpha.water, Initial residual = 0.00102034, Final residual = 5.44261e-11, No Iterations 2
Phase-1 volume fraction = 0.130194  Min(alpha.water) = 0  Max(alpha.water) = 1
MULES: Correcting alpha.water
MULES: Correcting alpha.water
Phase-1 volume fraction = 0.130194  Min(alpha.water) = -8.1977e-10  Max(alpha.water) = 1
DICPCG:  Solving for p_rgh, Initial residual = 0.0161724, Final residual = 0.000239052, No Iterations 1
time step continuity errors : sum local = 0.000927986, global = 6.3728e-08, cumulative = -9.98644e-06
DICPCG:  Solving for p_rgh, Initial residual = 0.000243855, Final residual = 1.1518e-05, No Iterations 10
time step continuity errors : sum local = 4.42434e-05, global = 1.12082e-06, cumulative = -8.86563e-06
DICPCG:  Solving for p_rgh, Initial residual = 1.7076e-05, Final residual = 9.65779e-08, No Iterations 38
time step continuity errors : sum local = 3.71422e-07, global = -6.80694e-08, cumulative = -8.93369e-06
ExecutionTime = 0.23 s  ClockTime = 0 s

Courant Number mean: 0.0270115 max: 0.207832
Interface Courant Number mean: 0.00132823 max: 0.207832
deltaT = 0.00405768
Time = 0.0215963

smoothSolver:  Solving for alpha.water, Initial residual = 0.00140091, Final residual = 1.80314e-10, No Iterations 2
Phase-1 volume fraction = 0.130194  Min(alpha.water) = 0  Max(alpha.water) = 1
MULES: Correcting alpha.water
MULES: Correcting alpha.water
Phase-1 volume fraction = 0.130194  Min(alpha.water) = -6.75967e-10  Max(alpha.water) = 1
DICPCG:  Solving for p_rgh, Initial residual = 0.0224489, Final residual = 0.000265218, No Iterations 1
time step continuity errors : sum local = 0.00124523, global = -1.65448e-08, cumulative = -8.95024e-06
DICPCG:  Solving for p_rgh, Initial residual = 0.000273119, Final residual = 1.31591e-05, No Iterations 10
time step continuity errors : sum local = 6.08771e-05, global = 2.38081e-06, cumulative = -6.56943e-06
DICPCG:  Solving for p_rgh, Initial residual = 2.19334e-05, Final residual = 9.65926e-08, No Iterations 40
time step continuity errors : sum local = 4.47701e-07, global = -7.34602e-08, cumulative = -6.64289e-06
ExecutionTime = 0.25 s  ClockTime = 0 s

Courant Number mean: 0.0373914 max: 0.275124
Interface Courant Number mean: 0.00187938 max: 0.273761
deltaT = 0.00473396
Time = 0.0263302

smoothSolver:  Solving for alpha.water, Initial residual = 0.00196673, Final residual = 7.31276e-10, No Iterations 2
Phase-1 volume fraction = 0.130194  Min(alpha.water) = 0  Max(alpha.water) = 1
MULES: Correcting alpha.water
MULES: Correcting alpha.water
Phase-1 volume fraction = 0.130194  Min(alpha.water) = -6.95735e-10  Max(alpha.water) = 1
DICPCG:  Solving for p_rgh, Initial residual = 0.0312102, Final residual = 0.000252857, No Iterations 1
time step continuity errors : sum local = 0.00153219, global = 1.80547e-07, cumulative = -6.46234e-06
DICPCG:  Solving for p_rgh, Initial residual = 0.000266167, Final residual = 1.2871e-05, No Iterations 11
time step continuity errors : sum local = 7.63243e-05, global = 1.26149e-06, cumulative = -5.20085e-06
DICPCG:  Solving for p_rgh, Initial residual = 2.78232e-05, Final residual = 9.47312e-08, No Iterations 43
time step continuity errors : sum local = 5.6345e-07, global = -2.89808e-08, cumulative = -5.22983e-06
ExecutionTime = 0.28 s  ClockTime = 0 s

Courant Number mean: 0.0534062 max: 0.383416
Interface Courant Number mean: 0.00270826 max: 0.375485
deltaT = 0.00473396
Time = 0.0310642

smoothSolver:  Solving for alpha.water, Initial residual = 0.0023781, Final residual = 1.53703e-13, No Iterations 3
Phase-1 volume fraction = 0.130194  Min(alpha.water) = 0  Max(alpha.water) = 1
MULES: Correcting alpha.water
MULES: Correcting alpha.water
Phase-1 volume fraction = 0.130194  Min(alpha.water) = -6.03818e-09  Max(alpha.water) = 1
DICPCG:  Solving for p_rgh, Initial residual = 0.0382323, Final residual = 0.00026258, No Iterations 1
time step continuity errors : sum local = 0.00149923, global = 3.28326e-07, cumulative = -4.9015e-06
DICPCG:  Solving for p_rgh, Initial residual = 0.000280672, Final residual = 1.36284e-05, No Iterations 11
time step continuity errors : sum local = 7.57724e-05, global = 5.36697e-06, cumulative = 4.65468e-07
DICPCG:  Solving for p_rgh, Initial residual = 3.11273e-05, Final residual = 7.76907e-08, No Iterations 39
time step continuity errors : sum local = 4.33898e-07, global = -3.62974e-08, cumulative = 4.2917e-07
ExecutionTime = 0.3 s  ClockTime = 0 s

Courant Number mean: 0.0628678 max: 0.432488
Interface Courant Number mean: 0.00327946 max: 0.420067
deltaT = 0.00473396
Time = 0.0357981

smoothSolver:  Solving for alpha.water, Initial residual = 0.00275526, Final residual = 3.31121e-13, No Iterations 3
Phase-1 volume fraction = 0.130194  Min(alpha.water) = 0  Max(alpha.water) = 1
MULES: Correcting alpha.water
MULES: Correcting alpha.water
Phase-1 volume fraction = 0.130194  Min(alpha.water) = -5.7851e-11  Max(alpha.water) = 1
DICPCG:  Solving for p_rgh, Initial residual = 0.0455746, Final residual = 0.000306878, No Iterations 1
time step continuity errors : sum local = 0.00163632, global = 2.20101e-07, cumulative = 6.49271e-07
DICPCG:  Solving for p_rgh, Initial residual = 0.000334325, Final residual = 1.64899e-05, No Iterations 10
time step continuity errors : sum local = 8.50476e-05, global = 6.48617e-06, cumulative = 7.13544e-06
DICPCG:  Solving for p_rgh, Initial residual = 3.90425e-05, Final residual = 9.77776e-08, No Iterations 39
time step continuity errors : sum local = 5.07007e-07, global = -4.16338e-08, cumulative = 7.0938e-06
ExecutionTime = 0.32 s  ClockTime = 0 s

Courant Number mean: 0.0720014 max: 0.502645
Interface Courant Number mean: 0.00406703 max: 0.488832
deltaT = 0.00473396
Time = 0.0405321

smoothSolver:  Solving for alpha.water, Initial residual = 0.00311027, Final residual = 6.2234e-10, No Iterations 3
Phase-1 volume fraction = 0.130194  Min(alpha.water) = 0  Max(alpha.water) = 1
MULES: Correcting alpha.water
MULES: Correcting alpha.water
Phase-1 volume fraction = 0.130194  Min(alpha.water) = -6.42684e-11  Max(alpha.water) = 1
DICPCG:  Solving for p_rgh, Initial residual = 0.0517879, Final residual = 0.000364577, No Iterations 1
time step continuity errors : sum local = 0.00179413, global = 1.7152e-07, cumulative = 7.26532e-06
DICPCG:  Solving for p_rgh, Initial residual = 0.000404443, Final residual = 1.89059e-05, No Iterations 10
time step continuity errors : sum local = 8.94763e-05, global = 8.19203e-06, cumulative = 1.54573e-05
DICPCG:  Solving for p_rgh, Initial residual = 4.87482e-05, Final residual = 9.52214e-08, No Iterations 28
time step continuity errors : sum local = 4.53927e-07, global = -8.85503e-08, cumulative = 1.53688e-05
ExecutionTime = 0.34 s  ClockTime = 0 s

Courant Number mean: 0.0809745 max: 0.545819
Interface Courant Number mean: 0.00496205 max: 0.530959
deltaT = 0.00473396
Time = 0.045266

smoothSolver:  Solving for alpha.water, Initial residual = 0.00345544, Final residual = 2.78862e-09, No Iterations 3
Phase-1 volume fraction = 0.130194  Min(alpha.water) = 0  Max(alpha.water) = 1
MULES: Correcting alpha.water
MULES: Correcting alpha.water
Phase-1 volume fraction = 0.130194  Min(alpha.water) = -8.98552e-11  Max(alpha.water) = 1
DICPCG:  Solving for p_rgh, Initial residual = 0.0557622, Final residual = 0.000453677, No Iterations 1
time step continuity errors : sum local = 0.00204122, global = 4.86959e-08, cumulative = 1.54175e-05
DICPCG:  Solving for p_rgh, Initial residual = 0.000505823, Final residual = 2.26137e-05, No Iterations 10
time step continuity errors : sum local = 9.75397e-05, global = 1.10826e-05, cumulative = 2.65001e-05
DICPCG:  Solving for p_rgh, Initial residual = 6.22649e-05, Final residual = 9.90838e-08, No Iterations 45
time step continuity errors : sum local = 4.31534e-07, global = -2.33383e-08, cumulative = 2.64768e-05
ExecutionTime = 0.37 s  ClockTime = 0 s

Courant Number mean: 0.0898514 max: 0.599222
Interface Courant Number mean: 0.00654577 max: 0.574545
deltaT = 0.00473396
Time = 0.05

smoothSolver:  Solving for alpha.water, Initial residual = 0.00378507, Final residual = 5.77923e-09, No Iterations 3
Phase-1 volume fraction = 0.130194  Min(alpha.water) = 0  Max(alpha.water) = 1
MULES: Correcting alpha.water
MULES: Correcting alpha.water
Phase-1 volume fraction = 0.130194  Min(alpha.water) = -1.33773e-10  Max(alpha.water) = 1
DICPCG:  Solving for p_rgh, Initial residual = 0.0567819, Final residual = 0.000554945, No Iterations 1
time step continuity errors : sum local = 0.00227389, global = 1.78484e-07, cumulative = 2.66552e-05
DICPCG:  Solving for p_rgh, Initial residual = 0.000616827, Final residual = 2.72445e-05, No Iterations 10
time step continuity errors : sum local = 0.000106895, global = 1.60333e-05, cumulative = 4.26886e-05
DICPCG:  Solving for p_rgh, Initial residual = 7.73649e-05, Final residual = 9.2315e-08, No Iterations 33
time step continuity errors : sum local = 3.6655e-07, global = -1.64056e-07, cumulative = 4.25245e-05
ExecutionTime = 0.39 s  ClockTime = 0 s

Courant Number mean: 0.0986579 max: 0.644328
Interface Courant Number mean: 0.00726669 max: 0.620098
deltaT = 0.005
Time = 0.055

smoothSolver:  Solving for alpha.water, Initial residual = 0.00435409, Final residual = 9.14082e-11, No Iterations 4
Phase-1 volume fraction = 0.130194  Min(alpha.water) = 0  Max(alpha.water) = 1
MULES: Correcting alpha.water
MULES: Correcting alpha.water
Phase-1 volume fraction = 0.130194  Min(alpha.water) = -3.66813e-10  Max(alpha.water) = 1
DICPCG:  Solving for p_rgh, Initial residual = 0.0563771, Final residual = 0.000762265, No Iterations 1
time step continuity errors : sum local = 0.00315096, global = -2.24989e-07, cumulative = 4.22995e-05
DICPCG:  Solving for p_rgh, Initial residual = 0.000854813, Final residual = 3.90468e-05, No Iterations 10
time step continuity errors : sum local = 0.00015464, global = 2.51523e-05, cumulative = 6.74518e-05
DICPCG:  Solving for p_rgh, Initial residual = 0.000116073, Final residual = 9.45576e-08, No Iterations 49
time step continuity errors : sum local = 3.80288e-07, global = -5.43097e-10, cumulative = 6.74513e-05
ExecutionTime = 0.41 s  ClockTime = 0 s

Courant Number mean: 0.114132 max: 0.725242
Interface Courant Number mean: 0.00858666 max: 0.701742
deltaT = 0.005625
Time = 0.060625

smoothSolver:  Solving for alpha.water, Initial residual = 0.00536371, Final residual = 4.15104e-10, No Iterations 4
Phase-1 volume fraction = 0.130194  Min(alpha.water) = 0  Max(alpha.water) = 1
MULES: Correcting alpha.water
MULES: Correcting alpha.water
Phase-1 volume fraction = 0.130194  Min(alpha.water) = -1.20791e-08  Max(alpha.water) = 1
DICPCG:  Solving for p_rgh, Initial residual = 0.0544619, Final residual = 0.0011753, No Iterations 1
time step continuity errors : sum local = 0.00557548, global = 3.60895e-07, cumulative = 6.78122e-05
DICPCG:  Solving for p_rgh, Initial residual = 0.00132776, Final residual = 5.46093e-05, No Iterations 11
time step continuity errors : sum local = 0.000248456, global = 5.18319e-05, cumulative = 0.000119644
DICPCG:  Solving for p_rgh, Initial residual = 0.000184397, Final residual = 9.2868e-08, No Iterations 49
time step continuity errors : sum local = 4.31229e-07, global = -3.19111e-08, cumulative = 0.000119612
ExecutionTime = 0.43 s  ClockTime = 0 s

Courant Number mean: 0.140972 max: 0.875291
Interface Courant Number mean: 0.0114388 max: 0.84053
deltaT = 0.005625
Time = 0.06625

smoothSolver:  Solving for alpha.water, Initial residual = 0.00583894, Final residual = 1.91828e-09, No Iterations 4
Phase-1 volume fraction = 0.130194  Min(alpha.water) = -3.36832e-27  Max(alpha.water) = 1
MULES: Correcting alpha.water
MULES: Correcting alpha.water
Phase-1 volume fraction = 0.130194  Min(alpha.water) = -3.36465e-09  Max(alpha.water) = 1
DICPCG:  Solving for p_rgh, Initial residual = 0.0434086, Final residual = 0.00143314, No Iterations 1
time step continuity errors : sum local = 0.00641562, global = -4.35093e-07, cumulative = 0.000119177
DICPCG:  Solving for p_rgh, Initial residual = 0.00160982, Final residual = 7.33937e-05, No Iterations 10
time step continuity errors : sum local = 0.000319037, global = 6.6072e-05, cumulative = 0.000185249
DICPCG:  Solving for p_rgh, Initial residual = 0.000229473, Final residual = 9.3971e-08, No Iterations 50
time step continuity errors : sum local = 4.18046e-07, global = -3.64301e-08, cumulative = 0.000185213
ExecutionTime = 0.46 s  ClockTime = 0 s

Courant Number mean: 0.152999 max: 0.962743
Interface Courant Number mean: 0.0134017 max: 0.895961
deltaT = 0.005625
Time = 0.071875

smoothSolver:  Solving for alpha.water, Initial residual = 0.00625487, Final residual = 3.74708e-09, No Iterations 4
Phase-1 volume fraction = 0.130194  Min(alpha.water) = 0  Max(alpha.water) = 1
MULES: Correcting alpha.water
MULES: Correcting alpha.water
Phase-1 volume fraction = 0.130194  Min(alpha.water) = -1.29569e-09  Max(alpha.water) = 1
DICPCG:  Solving for p_rgh, Initial residual = 0.0398776, Final residual = 0.00116958, No Iterations 1
time step continuity errors : sum local = 0.00552263, global = -9.88488e-07, cumulative = 0.000184224
DICPCG:  Solving for p_rgh, Initial residual = 0.00133906, Final residual = 5.74459e-05, No Iterations 11
time step continuity errors : sum local = 0.00026387, global = 6.23128e-05, cumulative = 0.000246537
DICPCG:  Solving for p_rgh, Initial residual = 0.000198816, Final residual = 9.7513e-08, No Iterations 50
time step continuity errors : sum local = 4.58563e-07, global = -4.25604e-08, cumulative = 0.000246494
ExecutionTime = 0.48 s  ClockTime = 0 s

Courant Number mean: 0.164605 max: 1.18277
Interface Courant Number mean: 0.0148392 max: 0.943993
deltaT = 0.0046875
Time = 0.0765625

smoothSolver:  Solving for alpha.water, Initial residual = 0.00557301, Final residual = 1.90991e-09, No Iterations 4
Phase-1 volume fraction = 0.130194  Min(alpha.water) = -2.36168e-14  Max(alpha.water) = 1
MULES: Correcting alpha.water
MULES: Correcting alpha.water
Phase-1 volume fraction = 0.130194  Min(alpha.water) = -1.40573e-09  Max(alpha.water) = 1
DICPCG:  Solving for p_rgh, Initial residual = 0.0663352, Final residual = 0.000735384, No Iterations 1
time step continuity errors : sum local = 0.00289031, global = -8.19649e-07, cumulative = 0.000245675
DICPCG:  Solving for p_rgh, Initial residual = 0.000854115, Final residual = 3.79554e-05, No Iterations 11
time step continuity errors : sum local = 0.000140072, global = 2.73941e-05, cumulative = 0.000273069
DICPCG:  Solving for p_rgh, Initial residual = 0.000125452, Final residual = 8.57864e-08, No Iterations 49
time step continuity errors : sum local = 3.22865e-07, global = -1.62739e-08, cumulative = 0.000273053
ExecutionTime = 0.5 s  ClockTime = 0 s

Courant Number mean: 0.144836 max: 1.16102
Interface Courant Number mean: 0.0132156 max: 0.831422
deltaT = 0.00390625
Time = 0.0804688

smoothSolver:  Solving for alpha.water, Initial residual = 0.00491793, Final residual = 7.00121e-10, No Iterations 4
Phase-1 volume fraction = 0.130194  Min(alpha.water) = -8.21777e-15  Max(alpha.water) = 1
MULES: Correcting alpha.water
MULES: Correcting alpha.water
Phase-1 volume fraction = 0.130194  Min(alpha.water) = -1.42412e-08  Max(alpha.water) = 1
DICPCG:  Solving for p_rgh, Initial residual = 0.0495852, Final residual = 0.00089162, No Iterations 1
time step continuity errors : sum local = 0.00223859, global = -3.21458e-07, cumulative = 0.000272731
DICPCG:  Solving for p_rgh, Initial residual = 0.00100685, Final residual = 4.24719e-05, No Iterations 11
time step continuity errors : sum local = 0.000101895, global = 2.01436e-05, cumulative = 0.000292875
DICPCG:  Solving for p_rgh, Initial residual = 0.000129814, Final residual = 9.96597e-08, No Iterations 35
time step continuity errors : sum local = 2.43535e-07, global = -4.03482e-08, cumulative = 0.000292834
ExecutionTime = 0.53 s  ClockTime = 0 s

Courant Number mean: 0.126024 max: 1.11314
Interface Courant Number mean: 0.0113493 max: 0.730583
deltaT = 0.00325521
Time = 0.083724

smoothSolver:  Solving for alpha.water, Initial residual = 0.00429405, Final residual = 2.47058e-10, No Iterations 4
Phase-1 volume fraction = 0.130194  Min(alpha.water) = -5.75388e-15  Max(alpha.water) = 1
MULES: Correcting alpha.water
MULES: Correcting alpha.water
Phase-1 volume fraction = 0.130194  Min(alpha.water) = -7.93809e-09  Max(alpha.water) = 1
DICPCG:  Solving for p_rgh, Initial residual = 0.038582, Final residual = 0.00104401, No Iterations 1
time step continuity errors : sum local = 0.00174545, global = -2.70388e-07, cumulative = 0.000292564
DICPCG:  Solving for p_rgh, Initial residual = 0.00115736, Final residual = 4.70372e-05, No Iterations 11
time step continuity errors : sum local = 7.60753e-05, global = 1.57431e-05, cumulative = 0.000308307
DICPCG:  Solving for p_rgh, Initial residual = 0.000133542, Final residual = 9.93476e-08, No Iterations 34
time step continuity errors : sum local = 1.63299e-07, global = -4.17617e-08, cumulative = 0.000308265
ExecutionTime = 0.56 s  ClockTime = 0 s

Courant Number mean: 0.108732 max: 1.05743
Interface Courant Number mean: 0.00967477 max: 0.609561
deltaT = 0.00271267
Time = 0.0864366

smoothSolver:  Solving for alpha.water, Initial residual = 0.00370722, Final residual = 7.80555e-09, No Iterations 3
Phase-1 volume fraction = 0.130194  Min(alpha.water) = -4.50592e-15  Max(alpha.water) = 1
MULES: Correcting alpha.water
MULES: Correcting alpha.water
Phase-1 volume fraction = 0.130194  Min(alpha.water) = -1.12929e-08  Max(alpha.water) = 1
DICPCG:  Solving for p_rgh, Initial residual = 0.0295527, Final residual = 0.000871994, No Iterations 1
time step continuity errors : sum local = 0.00101902, global = -1.92465e-07, cumulative = 0.000308073
DICPCG:  Solving for p_rgh, Initial residual = 0.000962774, Final residual = 3.90681e-05, No Iterations 11
time step continuity errors : sum local = 4.45666e-05, global = 9.58146e-06, cumulative = 0.000317654
DICPCG:  Solving for p_rgh, Initial residual = 0.000101674, Final residual = 8.25967e-08, No Iterations 48
time step continuity errors : sum local = 9.54634e-08, global = -5.26864e-09, cumulative = 0.000317649
ExecutionTime = 0.59 s  ClockTime = 1 s

Courant Number mean: 0.0930337 max: 0.990644
Interface Courant Number mean: 0.00796549 max: 0.510171
deltaT = 0.00271267
Time = 0.0891493

smoothSolver:  Solving for alpha.water, Initial residual = 0.00379032, Final residual = 8.02702e-09, No Iterations 3
Phase-1 volume fraction = 0.130194  Min(alpha.water) = -3.46589e-15  Max(alpha.water) = 1
MULES: Correcting alpha.water
MULES: Correcting alpha.water
Phase-1 volume fraction = 0.130194  Min(alpha.water) = -4.27713e-09  Max(alpha.water) = 1
DICPCG:  Solving for p_rgh, Initial residual = 0.0298765, Final residual = 0.000904576, No Iterations 1
time step continuity errors : sum local = 0.00107829, global = -8.11868e-08, cumulative = 0.000317568
DICPCG:  Solving for p_rgh, Initial residual = 0.00100197, Final residual = 4.66367e-05, No Iterations 11
time step continuity errors : sum local = 5.42925e-05, global = 9.81083e-06, cumulative = 0.000327379
DICPCG:  Solving for p_rgh, Initial residual = 0.000112369, Final residual = 9.17161e-08, No Iterations 48
time step continuity errors : sum local = 1.08039e-07, global = -4.97338e-09, cumulative = 0.000327374
ExecutionTime = 0.61 s  ClockTime = 1 s

Courant Number mean: 0.0953744 max: 1.1004
Interface Courant Number mean: 0.00823101 max: 0.636607
deltaT = 0.00217014
Time = 0.0913194

smoothSolver:  Solving for alpha.water, Initial residual = 0.00313365, Final residual = 2.37746e-09, No Iterations 3
Phase-1 volume fraction = 0.130194  Min(alpha.water) = -2.95218e-15  Max(alpha.water) = 1
MULES: Correcting alpha.water
MULES: Correcting alpha.water
Phase-1 volume fraction = 0.130194  Min(alpha.water) = -1.59683e-08  Max(alpha.water) = 1
DICPCG:  Solving for p_rgh, Initial residual = 0.0296354, Final residual = 0.000602359, No Iterations 1
time step continuity errors : sum local = 0.000512835, global = -9.20299e-08, cumulative = 0.000327282
DICPCG:  Solving for p_rgh, Initial residual = 0.00066294, Final residual = 2.39814e-05, No Iterations 12
time step continuity errors : sum local = 1.9915e-05, global = 3.93996e-06, cumulative = 0.000331222
DICPCG:  Solving for p_rgh, Initial residual = 6.40967e-05, Final residual = 8.30004e-08, No Iterations 47
time step continuity errors : sum local = 6.95897e-08, global = -3.46844e-09, cumulative = 0.000331218
ExecutionTime = 0.64 s  ClockTime = 1 s

Courant Number mean: 0.0777612 max: 0.946849
Interface Courant Number mean: 0.00667239 max: 0.519007
deltaT = 0.00217014
Time = 0.0934896

smoothSolver:  Solving for alpha.water, Initial residual = 0.0032147, Final residual = 2.45115e-09, No Iterations 3
Phase-1 volume fraction = 0.130194  Min(alpha.water) = -2.51351e-15  Max(alpha.water) = 1
MULES: Correcting alpha.water
MULES: Correcting alpha.water
Phase-1 volume fraction = 0.130194  Min(alpha.water) = -2.30679e-08  Max(alpha.water) = 1
DICPCG:  Solving for p_rgh, Initial residual = 0.0378368, Final residual = 0.000473483, No Iterations 1
time step continuity errors : sum local = 0.000441977, global = -2.76431e-08, cumulative = 0.000331191
DICPCG:  Solving for p_rgh, Initial residual = 0.000529174, Final residual = 1.9977e-05, No Iterations 12
time step continuity errors : sum local = 1.80013e-05, global = 2.86325e-06, cumulative = 0.000334054
DICPCG:  Solving for p_rgh, Initial residual = 5.67053e-05, Final residual = 8.29561e-08, No Iterations 46
time step continuity errors : sum local = 7.5365e-08, global = -1.75976e-09, cumulative = 0.000334052
ExecutionTime = 0.66 s  ClockTime = 1 s

Courant Number mean: 0.0792855 max: 1.00416
Interface Courant Number mean: 0.00670972 max: 0.526441
deltaT = 0.0016276
Time = 0.0951172

smoothSolver:  Solving for alpha.water, Initial residual = 0.00247937, Final residual = 5.06936e-10, No Iterations 3
Phase-1 volume fraction = 0.130194  Min(alpha.water) = -2.25012e-15  Max(alpha.water) = 1
MULES: Correcting alpha.water
MULES: Correcting alpha.water
Phase-1 volume fraction = 0.130194  Min(alpha.water) = -9.62396e-13  Max(alpha.water) = 1
DICPCG:  Solving for p_rgh, Initial residual = 0.0273441, Final residual = 0.000457417, No Iterations 1
time step continuity errors : sum local = 0.000231792, global = -1.78259e-08, cumulative = 0.000334034
DICPCG:  Solving for p_rgh, Initial residual = 0.000496062, Final residual = 2.39166e-05, No Iterations 11
time step continuity errors : sum local = 1.18216e-05, global = 1.60028e-06, cumulative = 0.000335634
DICPCG:  Solving for p_rgh, Initial residual = 4.78543e-05, Final residual = 8.86013e-08, No Iterations 43
time step continuity errors : sum local = 4.41198e-08, global = -1.06731e-09, cumulative = 0.000335633
ExecutionTime = 0.69 s  ClockTime = 1 s

Courant Number mean: 0.0603175 max: 0.788901
Interface Courant Number mean: 0.00512402 max: 0.560717
deltaT = 0.0016276
Time = 0.0967448

smoothSolver:  Solving for alpha.water, Initial residual = 0.00252762, Final residual = 5.21219e-10, No Iterations 3
Phase-1 volume fraction = 0.130194  Min(alpha.water) = -2.00819e-15  Max(alpha.water) = 1
MULES: Correcting alpha.water
MULES: Correcting alpha.water
Phase-1 volume fraction = 0.130194  Min(alpha.water) = -8.40626e-13  Max(alpha.water) = 1
DICPCG:  Solving for p_rgh, Initial residual = 0.0272926, Final residual = 0.000560153, No Iterations 1
time step continuity errors : sum local = 0.00027472, global = -8.82677e-09, cumulative = 0.000335625
DICPCG:  Solving for p_rgh, Initial residual = 0.000607866, Final residual = 2.25905e-05, No Iterations 12
time step continuity errors : sum local = 1.08094e-05, global = 1.73829e-06, cumulative = 0.000337363
DICPCG:  Solving for p_rgh, Initial residual = 5.39386e-05, Final residual = 8.78993e-08, No Iterations 45
time step continuity errors : sum local = 4.23197e-08, global = -2.54918e-09, cumulative = 0.00033736
ExecutionTime = 0.71 s  ClockTime = 1 s

Courant Number mean: 0.0612569 max: 0.821812
Interface Courant Number mean: 0.00529264 max: 0.684641
deltaT = 0.0016276
Time = 0.0983724

smoothSolver:  Solving for alpha.water, Initial residual = 0.00257677, Final residual = 5.32545e-10, No Iterations 3
Phase-1 volume fraction = 0.130194  Min(alpha.water) = -1.83283e-15  Max(alpha.water) = 1
MULES: Correcting alpha.water
MULES: Correcting alpha.water
Phase-1 volume fraction = 0.130194  Min(alpha.water) = -1.92246e-12  Max(alpha.water) = 1
DICPCG:  Solving for p_rgh, Initial residual = 0.0256466, Final residual = 0.000632847, No Iterations 1
time step continuity errors : sum local = 0.000297977, global = -6.12296e-09, cumulative = 0.000337354
DICPCG:  Solving for p_rgh, Initial residual = 0.000685245, Final residual = 2.34872e-05, No Iterations 12
time step continuity errors : sum local = 1.08213e-05, global = 2.30108e-06, cumulative = 0.000339655
DICPCG:  Solving for p_rgh, Initial residual = 5.80445e-05, Final residual = 8.52041e-08, No Iterations 45
time step continuity errors : sum local = 3.95046e-08, global = -3.26098e-09, cumulative = 0.000339652
ExecutionTime = 0.73 s  ClockTime = 1 s

Courant Number mean: 0.062183 max: 0.85166
Interface Courant Number mean: 0.00500651 max: 0.692344
deltaT = 0.0016276
Time = 0.1

smoothSolver:  Solving for alpha.water, Initial residual = 0.00262564, Final residual = 5.56405e-10, No Iterations 3
Phase-1 volume fraction = 0.130194  Min(alpha.water) = -1.71341e-15  Max(alpha.water) = 1
MULES: Correcting alpha.water
MULES: Correcting alpha.water
Phase-1 volume fraction = 0.130194  Min(alpha.water) = -3.39857e-11  Max(alpha.water) = 1
DICPCG:  Solving for p_rgh, Initial residual = 0.0243594, Final residual = 0.000594056, No Iterations 1
time step continuity errors : sum local = 0.000275462, global = -1.5125e-08, cumulative = 0.000339637
DICPCG:  Solving for p_rgh, Initial residual = 0.000645431, Final residual = 3.20092e-05, No Iterations 11
time step continuity errors : sum local = 1.45438e-05, global = 2.11994e-06, cumulative = 0.000341757
DICPCG:  Solving for p_rgh, Initial residual = 6.22583e-05, Final residual = 9.89617e-08, No Iterations 42
time step continuity errors : sum local = 4.52509e-08, global = -4.79086e-09, cumulative = 0.000341752
ExecutionTime = 0.76 s  ClockTime = 1 s

Courant Number mean: 0.0630231 max: 0.876474
Interface Courant Number mean: 0.00532038 max: 0.692484
deltaT = 0.00178571
Time = 0.101786

smoothSolver:  Solving for alpha.water, Initial residual = 0.00291659, Final residual = 1.04112e-09, No Iterations 3
Phase-1 volume fraction = 0.130194  Min(alpha.water) = -1.58575e-15  Max(alpha.water) = 1
MULES: Correcting alpha.water
MULES: Correcting alpha.water
Phase-1 volume fraction = 0.130194  Min(alpha.water) = -6.28417e-11  Max(alpha.water) = 1
DICPCG:  Solving for p_rgh, Initial residual = 0.0261038, Final residual = 0.000607139, No Iterations 1
time step continuity errors : sum local = 0.000336629, global = -2.2019e-08, cumulative = 0.00034173
DICPCG:  Solving for p_rgh, Initial residual = 0.000669791, Final residual = 2.32817e-05, No Iterations 12
time step continuity errors : sum local = 1.26205e-05, global = 2.40903e-06, cumulative = 0.000344139
DICPCG:  Solving for p_rgh, Initial residual = 6.2549e-05, Final residual = 9.67159e-08, No Iterations 45
time step continuity errors : sum local = 5.28003e-08, global = -4.0028e-09, cumulative = 0.000344135
ExecutionTime = 0.79 s  ClockTime = 1 s

Courant Number mean: 0.0701136 max: 0.982195
Interface Courant Number mean: 0.00646918 max: 0.846522
deltaT = 0.00178571
Time = 0.103571

smoothSolver:  Solving for alpha.water, Initial residual = 0.00295585, Final residual = 1.15069e-09, No Iterations 3
Phase-1 volume fraction = 0.130194  Min(alpha.water) = -1.46141e-15  Max(alpha.water) = 1
MULES: Correcting alpha.water
MULES: Correcting alpha.water
Phase-1 volume fraction = 0.130194  Min(alpha.water) = -2.53197e-11  Max(alpha.water) = 1
DICPCG:  Solving for p_rgh, Initial residual = 0.0251042, Final residual = 0.000649993, No Iterations 1
time step continuity errors : sum local = 0.000356584, global = -1.75172e-08, cumulative = 0.000344118
DICPCG:  Solving for p_rgh, Initial residual = 0.000717867, Final residual = 3.55867e-05, No Iterations 11
time step continuity errors : sum local = 1.91239e-05, global = 2.54265e-06, cumulative = 0.00034666
DICPCG:  Solving for p_rgh, Initial residual = 7.58985e-05, Final residual = 7.32074e-08, No Iterations 45
time step continuity errors : sum local = 3.96282e-08, global = -4.23197e-09, cumulative = 0.000346656
ExecutionTime = 0.81 s  ClockTime = 1 s

Courant Number mean: 0.0710424 max: 0.987127
Interface Courant Number mean: 0.00623499 max: 0.824074
deltaT = 0.00178571
Time = 0.105357

smoothSolver:  Solving for alpha.water, Initial residual = 0.00301246, Final residual = 1.25007e-09, No Iterations 3
Phase-1 volume fraction = 0.130194  Min(alpha.water) = -1.34012e-15  Max(alpha.water) = 1
MULES: Correcting alpha.water
MULES: Correcting alpha.water
Phase-1 volume fraction = 0.130194  Min(alpha.water) = -2.58325e-10  Max(alpha.water) = 1
DICPCG:  Solving for p_rgh, Initial residual = 0.026608, Final residual = 0.000639653, No Iterations 1
time step continuity errors : sum local = 0.000360238, global = -2.34324e-08, cumulative = 0.000346633
DICPCG:  Solving for p_rgh, Initial residual = 0.000706002, Final residual = 3.39172e-05, No Iterations 11
time step continuity errors : sum local = 1.86844e-05, global = 2.49306e-06, cumulative = 0.000349126
DICPCG:  Solving for p_rgh, Initial residual = 7.40815e-05, Final residual = 8.89957e-08, No Iterations 33
time step continuity errors : sum local = 4.9381e-08, global = 2.06019e-08, cumulative = 0.000349146
ExecutionTime = 0.83 s  ClockTime = 1 s

Courant Number mean: 0.0719859 max: 0.984787
Interface Courant Number mean: 0.00647418 max: 0.900494
deltaT = 0.00178571
Time = 0.107143

smoothSolver:  Solving for alpha.water, Initial residual = 0.00307353, Final residual = 1.29718e-09, No Iterations 3
Phase-1 volume fraction = 0.130194  Min(alpha.water) = -1.22119e-15  Max(alpha.water) = 1
MULES: Correcting alpha.water
MULES: Correcting alpha.water
Phase-1 volume fraction = 0.130194  Min(alpha.water) = -1.46306e-10  Max(alpha.water) = 1
DICPCG:  Solving for p_rgh, Initial residual = 0.0256861, Final residual = 0.000640516, No Iterations 1
time step continuity errors : sum local = 0.000363446, global = 2.84913e-08, cumulative = 0.000349175
DICPCG:  Solving for p_rgh, Initial residual = 0.000711192, Final residual = 3.47692e-05, No Iterations 11
time step continuity errors : sum local = 1.93202e-05, global = 2.45385e-06, cumulative = 0.000351629
DICPCG:  Solving for p_rgh, Initial residual = 7.61117e-05, Final residual = 7.32917e-08, No Iterations 45
time step continuity errors : sum local = 4.1018e-08, global = -4.94495e-09, cumulative = 0.000351624
ExecutionTime = 0.85 s  ClockTime = 1 s

Courant Number mean: 0.073018 max: 0.98214
Interface Courant Number mean: 0.00626491 max: 0.893913
deltaT = 0.00178571
Time = 0.108929

smoothSolver:  Solving for alpha.water, Initial residual = 0.00313151, Final residual = 1.4528e-09, No Iterations 3
Phase-1 volume fraction = 0.130194  Min(alpha.water) = -1.1034e-15  Max(alpha.water) = 1
MULES: Correcting alpha.water
MULES: Correcting alpha.water
Phase-1 volume fraction = 0.130194  Min(alpha.water) = -1.03201e-08  Max(alpha.water) = 1
DICPCG:  Solving for p_rgh, Initial residual = 0.0260736, Final residual = 0.000570044, No Iterations 1
time step continuity errors : sum local = 0.000338022, global = -3.92281e-08, cumulative = 0.000351584
DICPCG:  Solving for p_rgh, Initial residual = 0.00063535, Final residual = 2.16546e-05, No Iterations 12
time step continuity errors : sum local = 1.25507e-05, global = 2.35209e-06, cumulative = 0.000353936
DICPCG:  Solving for p_rgh, Initial residual = 6.34506e-05, Final residual = 8.40827e-08, No Iterations 45
time step continuity errors : sum local = 4.90817e-08, global = -3.69894e-09, cumulative = 0.000353933
ExecutionTime = 0.88 s  ClockTime = 1 s

Courant Number mean: 0.074038 max: 0.979019
Interface Courant Number mean: 0.00667605 max: 0.891169
deltaT = 0.00178571
Time = 0.110714

smoothSolver:  Solving for alpha.water, Initial residual = 0.00317501, Final residual = 1.60518e-09, No Iterations 3
Phase-1 volume fraction = 0.130194  Min(alpha.water) = -9.85269e-16  Max(alpha.water) = 1
MULES: Correcting alpha.water
MULES: Correcting alpha.water
Phase-1 volume fraction = 0.130194  Min(alpha.water) = -1.70176e-11  Max(alpha.water) = 1
DICPCG:  Solving for p_rgh, Initial residual = 0.0321463, Final residual = 0.000525396, No Iterations 1
time step continuity errors : sum local = 0.000333372, global = -1.4734e-08, cumulative = 0.000353918
DICPCG:  Solving for p_rgh, Initial residual = 0.000591118, Final residual = 2.26306e-05, No Iterations 12
time step continuity errors : sum local = 1.39356e-05, global = 1.97352e-06, cumulative = 0.000355892
DICPCG:  Solving for p_rgh, Initial residual = 6.57783e-05, Final residual = 9.40871e-08, No Iterations 44
time step continuity errors : sum local = 5.83348e-08, global = -3.96003e-09, cumulative = 0.000355888
ExecutionTime = 0.9 s  ClockTime = 1 s

Courant Number mean: 0.0751032 max: 0.976488
Interface Courant Number mean: 0.00660332 max: 0.892591
deltaT = 0.00178571
Time = 0.1125

smoothSolver:  Solving for alpha.water, Initial residual = 0.00320128, Final residual = 1.72347e-09, No Iterations 3
Phase-1 volume fraction = 0.130194  Min(alpha.water) = -8.6416e-16  Max(alpha.water) = 1
MULES: Correcting alpha.water
MULES: Correcting alpha.water
Phase-1 volume fraction = 0.130194  Min(alpha.water) = -1.84327e-10  Max(alpha.water) = 1
DICPCG:  Solving for p_rgh, Initial residual = 0.0300719, Final residual = 0.000575536, No Iterations 1
time step continuity errors : sum local = 0.000347743, global = -1.0464e-08, cumulative = 0.000355877
DICPCG:  Solving for p_rgh, Initial residual = 0.000649119, Final residual = 2.51063e-05, No Iterations 12
time step continuity errors : sum local = 1.47811e-05, global = 2.40816e-06, cumulative = 0.000358285
DICPCG:  Solving for p_rgh, Initial residual = 7.08762e-05, Final residual = 8.59148e-08, No Iterations 44
time step continuity errors : sum local = 5.09355e-08, global = -4.19851e-09, cumulative = 0.000358281
ExecutionTime = 0.92 s  ClockTime = 1 s

Courant Number mean: 0.0761297 max: 0.977216
Interface Courant Number mean: 0.00669623 max: 0.977216
deltaT = 0.00178571
Time = 0.114286

smoothSolver:  Solving for alpha.water, Initial residual = 0.00325807, Final residual = 1.76029e-09, No Iterations 3
Phase-1 volume fraction = 0.130194  Min(alpha.water) = -7.44126e-16  Max(alpha.water) = 1
MULES: Correcting alpha.water
MULES: Correcting alpha.water
Phase-1 volume fraction = 0.130194  Min(alpha.water) = -2.54584e-11  Max(alpha.water) = 1
DICPCG:  Solving for p_rgh, Initial residual = 0.0300234, Final residual = 0.00050991, No Iterations 1
time step continuity errors : sum local = 0.000303666, global = -1.9468e-08, cumulative = 0.000358262
DICPCG:  Solving for p_rgh, Initial residual = 0.000580469, Final residual = 2.27916e-05, No Iterations 12
time step continuity errors : sum local = 1.32107e-05, global = 2.29101e-06, cumulative = 0.000360553
DICPCG:  Solving for p_rgh, Initial residual = 6.25511e-05, Final residual = 9.52206e-08, No Iterations 44
time step continuity errors : sum local = 5.55941e-08, global = -3.18104e-09, cumulative = 0.000360549
ExecutionTime = 0.95 s  ClockTime = 1 s

Courant Number mean: 0.0770236 max: 0.98591
Interface Courant Number mean: 0.00663886 max: 0.98591
deltaT = 0.00178571
Time = 0.116071

smoothSolver:  Solving for alpha.water, Initial residual = 0.0033164, Final residual = 1.84711e-09, No Iterations 3
Phase-1 volume fraction = 0.130194  Min(alpha.water) = -6.26169e-16  Max(alpha.water) = 1
MULES: Correcting alpha.water
MULES: Correcting alpha.water
Phase-1 volume fraction = 0.130194  Min(alpha.water) = -3.08143e-12  Max(alpha.water) = 1
DICPCG:  Solving for p_rgh, Initial residual = 0.0281123, Final residual = 0.00056382, No Iterations 1
time step continuity errors : sum local = 0.000326065, global = -2.57965e-08, cumulative = 0.000360524
DICPCG:  Solving for p_rgh, Initial residual = 0.000642205, Final residual = 2.821e-05, No Iterations 12
time step continuity errors : sum local = 1.59082e-05, global = 2.11485e-06, cumulative = 0.000362638
DICPCG:  Solving for p_rgh, Initial residual = 7.19668e-05, Final residual = 7.34407e-08, No Iterations 44
time step continuity errors : sum local = 4.17355e-08, global = -4.06097e-10, cumulative = 0.000362638
ExecutionTime = 0.96 s  ClockTime = 1 s

Courant Number mean: 0.0778753 max: 0.993719
Interface Courant Number mean: 0.0069704 max: 0.993719
deltaT = 0.00178571
Time = 0.117857

smoothSolver:  Solving for alpha.water, Initial residual = 0.0033627, Final residual = 1.94837e-09, No Iterations 3
Phase-1 volume fraction = 0.130194  Min(alpha.water) = -5.06369e-16  Max(alpha.water) = 1
MULES: Correcting alpha.water
MULES: Correcting alpha.water
Phase-1 volume fraction = 0.130194  Min(alpha.water) = -8.16621e-11  Max(alpha.water) = 1
DICPCG:  Solving for p_rgh, Initial residual = 0.0261794, Final residual = 0.000627721, No Iterations 1
time step continuity errors : sum local = 0.000354482, global = -1.72808e-08, cumulative = 0.000362621
DICPCG:  Solving for p_rgh, Initial residual = 0.000702309, Final residual = 2.76566e-05, No Iterations 12
time step continuity errors : sum local = 1.52669e-05, global = 2.23141e-06, cumulative = 0.000364852
DICPCG:  Solving for p_rgh, Initial residual = 7.6385e-05, Final residual = 9.93887e-08, No Iterations 44
time step continuity errors : sum local = 5.5296e-08, global = -4.59056e-09, cumulative = 0.000364848
ExecutionTime = 1 s  ClockTime = 1 s

Courant Number mean: 0.0787326 max: 1.00807
Interface Courant Number mean: 0.00722311 max: 1.00807
deltaT = 0.00169173
Time = 0.119549

smoothSolver:  Solving for alpha.water, Initial residual = 0.00322101, Final residual = 1.4582e-09, No Iterations 3
Phase-1 volume fraction = 0.130194  Min(alpha.water) = -3.91366e-16  Max(alpha.water) = 1
MULES: Correcting alpha.water
MULES: Correcting alpha.water
Phase-1 volume fraction = 0.130194  Min(alpha.water) = -1.44887e-10  Max(alpha.water) = 1
DICPCG:  Solving for p_rgh, Initial residual = 0.0243388, Final residual = 0.000640649, No Iterations 1
time step continuity errors : sum local = 0.000324151, global = -2.67377e-08, cumulative = 0.000364821
DICPCG:  Solving for p_rgh, Initial residual = 0.000708544, Final residual = 2.80133e-05, No Iterations 12
time step continuity errors : sum local = 1.38812e-05, global = 1.78549e-06, cumulative = 0.000366606
DICPCG:  Solving for p_rgh, Initial residual = 7.50922e-05, Final residual = 9.53282e-08, No Iterations 43
time step continuity errors : sum local = 4.76178e-08, global = -2.87064e-09, cumulative = 0.000366604
ExecutionTime = 1.01 s  ClockTime = 1 s

Courant Number mean: 0.0754258 max: 0.974352
Interface Courant Number mean: 0.00657211 max: 0.974352
deltaT = 0.00169173
Time = 0.121241

smoothSolver:  Solving for alpha.water, Initial residual = 0.00323128, Final residual = 1.47494e-09, No Iterations 3
Phase-1 volume fraction = 0.130194  Min(alpha.water) = -3.49697e-16  Max(alpha.water) = 1
MULES: Correcting alpha.water
MULES: Correcting alpha.water
Phase-1 volume fraction = 0.130194  Min(alpha.water) = -1.07936e-10  Max(alpha.water) = 1
DICPCG:  Solving for p_rgh, Initial residual = 0.0230873, Final residual = 0.000626274, No Iterations 1
time step continuity errors : sum local = 0.000316593, global = -1.05236e-08, cumulative = 0.000366593
DICPCG:  Solving for p_rgh, Initial residual = 0.000705685, Final residual = 2.85399e-05, No Iterations 12
time step continuity errors : sum local = 1.41665e-05, global = 1.6968e-06, cumulative = 0.00036829
DICPCG:  Solving for p_rgh, Initial residual = 7.83038e-05, Final residual = 7.68486e-08, No Iterations 44
time step continuity errors : sum local = 3.84632e-08, global = -2.80764e-09, cumulative = 0.000368287
ExecutionTime = 1.04 s  ClockTime = 1 s

Courant Number mean: 0.076328 max: 1.00368
Interface Courant Number mean: 0.00695806 max: 1.00368
deltaT = 0.00159774
Time = 0.122838

smoothSolver:  Solving for alpha.water, Initial residual = 0.0030984, Final residual = 1.04437e-09, No Iterations 3
Phase-1 volume fraction = 0.130194  Min(alpha.water) = -3.19374e-16  Max(alpha.water) = 1
MULES: Correcting alpha.water
MULES: Correcting alpha.water
Phase-1 volume fraction = 0.130194  Min(alpha.water) = -5.50534e-11  Max(alpha.water) = 1
DICPCG:  Solving for p_rgh, Initial residual = 0.0224854, Final residual = 0.000642485, No Iterations 1
time step continuity errors : sum local = 0.000295755, global = -1.09042e-08, cumulative = 0.000368276
DICPCG:  Solving for p_rgh, Initial residual = 0.000728719, Final residual = 3.56365e-05, No Iterations 11
time step continuity errors : sum local = 1.61223e-05, global = 1.35628e-06, cumulative = 0.000369632
DICPCG:  Solving for p_rgh, Initial residual = 8.2531e-05, Final residual = 8.60082e-08, No Iterations 43
time step continuity errors : sum local = 3.92203e-08, global = 2.7979e-10, cumulative = 0.000369633
ExecutionTime = 1.07 s  ClockTime = 1 s

Courant Number mean: 0.0728289 max: 0.979497
Interface Courant Number mean: 0.00654093 max: 0.979497
deltaT = 0.00159774
Time = 0.124436

smoothSolver:  Solving for alpha.water, Initial residual = 0.00313999, Final residual = 1.0505e-09, No Iterations 3
Phase-1 volume fraction = 0.130194  Min(alpha.water) = -2.87175e-16  Max(alpha.water) = 1
MULES: Correcting alpha.water
MULES: Correcting alpha.water
Phase-1 volume fraction = 0.130194  Min(alpha.water) = -4.80568e-11  Max(alpha.water) = 1
DICPCG:  Solving for p_rgh, Initial residual = 0.0234696, Final residual = 0.000619428, No Iterations 1
time step continuity errors : sum local = 0.000294504, global = -8.90905e-09, cumulative = 0.000369624
DICPCG:  Solving for p_rgh, Initial residual = 0.000717578, Final residual = 3.52675e-05, No Iterations 9
time step continuity errors : sum local = 1.64899e-05, global = 2.97119e-07, cumulative = 0.000369921
DICPCG:  Solving for p_rgh, Initial residual = 8.5589e-05, Final residual = 9.47444e-08, No Iterations 44
time step continuity errors : sum local = 4.45992e-08, global = -2.19935e-10, cumulative = 0.000369921
ExecutionTime = 1.09 s  ClockTime = 1 s

Courant Number mean: 0.0735762 max: 1.01915
Interface Courant Number mean: 0.00643784 max: 1.01915
deltaT = 0.00150376
Time = 0.12594

smoothSolver:  Solving for alpha.water, Initial residual = 0.00300301, Final residual = 7.54689e-10, No Iterations 3
Phase-1 volume fraction = 0.130194  Min(alpha.water) = -2.55067e-16  Max(alpha.water) = 1
MULES: Correcting alpha.water
MULES: Correcting alpha.water
Phase-1 volume fraction = 0.130194  Min(alpha.water) = -3.87475e-11  Max(alpha.water) = 1
DICPCG:  Solving for p_rgh, Initial residual = 0.0232209, Final residual = 0.000461189, No Iterations 1
time step continuity errors : sum local = 0.000206218, global = -7.98995e-10, cumulative = 0.00036992
DICPCG:  Solving for p_rgh, Initial residual = 0.000539522, Final residual = 2.64578e-05, No Iterations 11
time step continuity errors : sum local = 1.16071e-05, global = 7.11098e-07, cumulative = 0.000370631
DICPCG:  Solving for p_rgh, Initial residual = 6.8483e-05, Final residual = 7.73433e-08, No Iterations 43
time step continuity errors : sum local = 3.41974e-08, global = 6.57263e-11, cumulative = 0.000370631
ExecutionTime = 1.11 s  ClockTime = 1 s

Courant Number mean: 0.0698449 max: 0.992975
Interface Courant Number mean: 0.00610798 max: 0.992975
deltaT = 0.00150376
Time = 0.127444

smoothSolver:  Solving for alpha.water, Initial residual = 0.00304297, Final residual = 7.65669e-10, No Iterations 3
Phase-1 volume fraction = 0.130194  Min(alpha.water) = -2.35706e-16  Max(alpha.water) = 1
MULES: Correcting alpha.water
MULES: Correcting alpha.water
Phase-1 volume fraction = 0.130194  Min(alpha.water) = -3.91418e-11  Max(alpha.water) = 1
DICPCG:  Solving for p_rgh, Initial residual = 0.0262632, Final residual = 0.000446573, No Iterations 1
time step continuity errors : sum local = 0.000206447, global = -6.9147e-09, cumulative = 0.000370624
DICPCG:  Solving for p_rgh, Initial residual = 0.000526544, Final residual = 2.57946e-05, No Iterations 12
time step continuity errors : sum local = 1.16664e-05, global = 8.63634e-07, cumulative = 0.000371488
DICPCG:  Solving for p_rgh, Initial residual = 7.08932e-05, Final residual = 9.25022e-08, No Iterations 43
time step continuity errors : sum local = 4.22164e-08, global = -7.64957e-10, cumulative = 0.000371487
ExecutionTime = 1.13 s  ClockTime = 1 s

Courant Number mean: 0.0704236 max: 1.02311
Interface Courant Number mean: 0.00601307 max: 1.02311
deltaT = 0.00140977
Time = 0.128853

smoothSolver:  Solving for alpha.water, Initial residual = 0.00287498, Final residual = 5.30552e-10, No Iterations 3
Phase-1 volume fraction = 0.130194  Min(alpha.water) = -2.23988e-16  Max(alpha.water) = 1
MULES: Correcting alpha.water
MULES: Correcting alpha.water
Phase-1 volume fraction = 0.130194  Min(alpha.water) = -1.0973e-11  Max(alpha.water) = 1
DICPCG:  Solving for p_rgh, Initial residual = 0.0233166, Final residual = 0.000469627, No Iterations 1
time step continuity errors : sum local = 0.000186804, global = -8.64485e-09, cumulative = 0.000371478
DICPCG:  Solving for p_rgh, Initial residual = 0.000546135, Final residual = 2.64827e-05, No Iterations 12
time step continuity errors : sum local = 1.03367e-05, global = 7.44639e-07, cumulative = 0.000372223
DICPCG:  Solving for p_rgh, Initial residual = 7.39858e-05, Final residual = 8.89821e-08, No Iterations 43
time step continuity errors : sum local = 3.50702e-08, global = -1.38362e-10, cumulative = 0.000372223
ExecutionTime = 1.16 s  ClockTime = 1 s

Courant Number mean: 0.0665042 max: 0.973154
Interface Courant Number mean: 0.00563769 max: 0.973154
deltaT = 0.00140977
Time = 0.130263

smoothSolver:  Solving for alpha.water, Initial residual = 0.00289819, Final residual = 5.29406e-10, No Iterations 3
Phase-1 volume fraction = 0.130194  Min(alpha.water) = -2.11056e-16  Max(alpha.water) = 1
MULES: Correcting alpha.water
MULES: Correcting alpha.water
Phase-1 volume fraction = 0.130194  Min(alpha.water) = -3.65953e-12  Max(alpha.water) = 1
DICPCG:  Solving for p_rgh, Initial residual = 0.0229379, Final residual = 0.000513573, No Iterations 1
time step continuity errors : sum local = 0.000200549, global = -5.6617e-09, cumulative = 0.000372217
DICPCG:  Solving for p_rgh, Initial residual = 0.000605568, Final residual = 2.53058e-05, No Iterations 13
time step continuity errors : sum local = 9.70339e-06, global = 7.51024e-07, cumulative = 0.000372968
DICPCG:  Solving for p_rgh, Initial residual = 8.92245e-05, Final residual = 8.52554e-08, No Iterations 48
time step continuity errors : sum local = 3.30441e-08, global = -2.60248e-10, cumulative = 0.000372968
ExecutionTime = 1.18 s  ClockTime = 1 s

Courant Number mean: 0.0670302 max: 0.966326
Interface Courant Number mean: 0.00544697 max: 0.966326
deltaT = 0.00140977
Time = 0.131673

smoothSolver:  Solving for alpha.water, Initial residual = 0.00295489, Final residual = 5.22349e-10, No Iterations 3
Phase-1 volume fraction = 0.130194  Min(alpha.water) = -1.96967e-16  Max(alpha.water) = 1
MULES: Correcting alpha.water
MULES: Correcting alpha.water
Phase-1 volume fraction = 0.130194  Min(alpha.water) = -3.60809e-12  Max(alpha.water) = 1
DICPCG:  Solving for p_rgh, Initial residual = 0.0208901, Final residual = 0.000552142, No Iterations 1
time step continuity errors : sum local = 0.000211479, global = -4.45318e-09, cumulative = 0.000372963
DICPCG:  Solving for p_rgh, Initial residual = 0.000651676, Final residual = 3.08927e-05, No Iterations 12
time step continuity errors : sum local = 1.16304e-05, global = 7.23011e-07, cumulative = 0.000373686
DICPCG:  Solving for p_rgh, Initial residual = 0.000102169, Final residual = 7.65842e-08, No Iterations 49
time step continuity errors : sum local = 2.91024e-08, global = -1.35196e-09, cumulative = 0.000373685
ExecutionTime = 1.2 s  ClockTime = 1 s

Courant Number mean: 0.067595 max: 0.934311
Interface Courant Number mean: 0.00619012 max: 0.934311
deltaT = 0.00140977
Time = 0.133083

smoothSolver:  Solving for alpha.water, Initial residual = 0.00297964, Final residual = 5.09403e-10, No Iterations 3
Phase-1 volume fraction = 0.130194  Min(alpha.water) = -1.81664e-16  Max(alpha.water) = 1
MULES: Correcting alpha.water
MULES: Correcting alpha.water
Phase-1 volume fraction = 0.130194  Min(alpha.water) = -2.45665e-13  Max(alpha.water) = 1
DICPCG:  Solving for p_rgh, Initial residual = 0.0203218, Final residual = 0.000580195, No Iterations 1
time step continuity errors : sum local = 0.000220543, global = -5.89337e-09, cumulative = 0.000373679
DICPCG:  Solving for p_rgh, Initial residual = 0.000671263, Final residual = 3.17319e-05, No Iterations 13
time step continuity errors : sum local = 1.18931e-05, global = 6.2684e-07, cumulative = 0.000374306
DICPCG:  Solving for p_rgh, Initial residual = 0.000106477, Final residual = 9.60516e-08, No Iterations 49
time step continuity errors : sum local = 3.64255e-08, global = -1.08524e-09, cumulative = 0.000374305
ExecutionTime = 1.23 s  ClockTime = 1 s

Courant Number mean: 0.0681941 max: 0.882391
Interface Courant Number mean: 0.00618209 max: 0.882391
deltaT = 0.00153794
Time = 0.134621

smoothSolver:  Solving for alpha.water, Initial residual = 0.00328726, Final residual = 8.49393e-10, No Iterations 3
Phase-1 volume fraction = 0.130194  Min(alpha.water) = -1.6222e-16  Max(alpha.water) = 1
MULES: Correcting alpha.water
MULES: Correcting alpha.water
Phase-1 volume fraction = 0.130194  Min(alpha.water) = -4.9995e-12  Max(alpha.water) = 1
DICPCG:  Solving for p_rgh, Initial residual = 0.0219989, Final residual = 0.000634883, No Iterations 1
time step continuity errors : sum local = 0.000289206, global = 1.98985e-09, cumulative = 0.000374307
DICPCG:  Solving for p_rgh, Initial residual = 0.000729872, Final residual = 3.59126e-05, No Iterations 11
time step continuity errors : sum local = 1.61086e-05, global = 5.78546e-07, cumulative = 0.000374886
DICPCG:  Solving for p_rgh, Initial residual = 0.000119517, Final residual = 8.70891e-08, No Iterations 49
time step continuity errors : sum local = 3.95237e-08, global = -5.23466e-10, cumulative = 0.000374885
ExecutionTime = 1.25 s  ClockTime = 1 s

Courant Number mean: 0.075045 max: 0.905762
Interface Courant Number mean: 0.00648602 max: 0.905762
deltaT = 0.00153794
Time = 0.136159

smoothSolver:  Solving for alpha.water, Initial residual = 0.00329912, Final residual = 8.63049e-10, No Iterations 3
Phase-1 volume fraction = 0.130194  Min(alpha.water) = -1.39847e-16  Max(alpha.water) = 1
MULES: Correcting alpha.water
MULES: Correcting alpha.water
Phase-1 volume fraction = 0.130194  Min(alpha.water) = -8.26069e-13  Max(alpha.water) = 1
DICPCG:  Solving for p_rgh, Initial residual = 0.0202722, Final residual = 0.000602735, No Iterations 1
time step continuity errors : sum local = 0.000274119, global = -6.84391e-09, cumulative = 0.000374878
DICPCG:  Solving for p_rgh, Initial residual = 0.000724066, Final residual = 3.53789e-05, No Iterations 10
time step continuity errors : sum local = 1.58564e-05, global = 3.0218e-07, cumulative = 0.00037518
DICPCG:  Solving for p_rgh, Initial residual = 0.000109174, Final residual = 8.76221e-08, No Iterations 48
time step continuity errors : sum local = 3.96791e-08, global = 1.03056e-10, cumulative = 0.00037518
ExecutionTime = 1.27 s  ClockTime = 1 s

Courant Number mean: 0.0756048 max: 0.867737
Interface Courant Number mean: 0.00635812 max: 0.867737
deltaT = 0.00153794
Time = 0.137697

smoothSolver:  Solving for alpha.water, Initial residual = 0.00333761, Final residual = 8.73436e-10, No Iterations 3
Phase-1 volume fraction = 0.130194  Min(alpha.water) = -1.25811e-16  Max(alpha.water) = 1
MULES: Correcting alpha.water
MULES: Correcting alpha.water
Phase-1 volume fraction = 0.130194  Min(alpha.water) = -5.42246e-10  Max(alpha.water) = 1
DICPCG:  Solving for p_rgh, Initial residual = 0.0195768, Final residual = 0.000614229, No Iterations 1
time step continuity errors : sum local = 0.000282656, global = -3.83649e-09, cumulative = 0.000375177
DICPCG:  Solving for p_rgh, Initial residual = 0.00072578, Final residual = 2.51173e-05, No Iterations 14
time step continuity errors : sum local = 1.14094e-05, global = 1.15601e-06, cumulative = 0.000376333
DICPCG:  Solving for p_rgh, Initial residual = 0.00010103, Final residual = 9.56355e-08, No Iterations 47
time step continuity errors : sum local = 4.40718e-08, global = -1.84512e-09, cumulative = 0.000376331
ExecutionTime = 1.3 s  ClockTime = 1 s

Courant Number mean: 0.0761422 max: 0.848777
Interface Courant Number mean: 0.00666878 max: 0.83818
deltaT = 0.00153794
Time = 0.139234

smoothSolver:  Solving for alpha.water, Initial residual = 0.00339128, Final residual = 8.9398e-10, No Iterations 3
Phase-1 volume fraction = 0.130194  Min(alpha.water) = -1.19919e-16  Max(alpha.water) = 1
MULES: Correcting alpha.water
MULES: Correcting alpha.water
Phase-1 volume fraction = 0.130194  Min(alpha.water) = -8.4913e-10  Max(alpha.water) = 1
DICPCG:  Solving for p_rgh, Initial residual = 0.0202586, Final residual = 0.000607311, No Iterations 1
time step continuity errors : sum local = 0.00028598, global = -1.5604e-08, cumulative = 0.000376315
DICPCG:  Solving for p_rgh, Initial residual = 0.000706122, Final residual = 3.51946e-05, No Iterations 11
time step continuity errors : sum local = 1.63514e-05, global = 5.28184e-07, cumulative = 0.000376843
DICPCG:  Solving for p_rgh, Initial residual = 0.000110786, Final residual = 7.57034e-08, No Iterations 49
time step continuity errors : sum local = 3.56224e-08, global = -5.65652e-10, cumulative = 0.000376843
ExecutionTime = 1.31 s  ClockTime = 1 s

Courant Number mean: 0.0766109 max: 0.853662
Interface Courant Number mean: 0.00699347 max: 0.84116
deltaT = 0.00153794
Time = 0.140772

smoothSolver:  Solving for alpha.water, Initial residual = 0.00342731, Final residual = 9.07287e-10, No Iterations 3
Phase-1 volume fraction = 0.130194  Min(alpha.water) = -1.12891e-16  Max(alpha.water) = 1
MULES: Correcting alpha.water
MULES: Correcting alpha.water
Phase-1 volume fraction = 0.130194  Min(alpha.water) = -7.50679e-10  Max(alpha.water) = 1
DICPCG:  Solving for p_rgh, Initial residual = 0.0199211, Final residual = 0.000601769, No Iterations 1
time step continuity errors : sum local = 0.000289906, global = -7.74909e-09, cumulative = 0.000376835
DICPCG:  Solving for p_rgh, Initial residual = 0.000693257, Final residual = 3.30189e-05, No Iterations 11
time step continuity errors : sum local = 1.57031e-05, global = 5.01769e-07, cumulative = 0.000377337
DICPCG:  Solving for p_rgh, Initial residual = 0.000102377, Final residual = 7.11944e-08, No Iterations 49
time step continuity errors : sum local = 3.42207e-08, global = 3.51326e-10, cumulative = 0.000377337
ExecutionTime = 1.34 s  ClockTime = 1 s

Courant Number mean: 0.077046 max: 0.855335
Interface Courant Number mean: 0.00724002 max: 0.855335
deltaT = 0.00153794
Time = 0.14231

smoothSolver:  Solving for alpha.water, Initial residual = 0.00352429, Final residual = 9.1676e-10, No Iterations 3
Phase-1 volume fraction = 0.130194  Min(alpha.water) = -1.04566e-16  Max(alpha.water) = 1
MULES: Correcting alpha.water
MULES: Correcting alpha.water
Phase-1 volume fraction = 0.130194  Min(alpha.water) = -5.87797e-10  Max(alpha.water) = 1
DICPCG:  Solving for p_rgh, Initial residual = 0.021989, Final residual = 0.000500257, No Iterations 1
time step continuity errors : sum local = 0.000254575, global = -3.54903e-09, cumulative = 0.000377334
DICPCG:  Solving for p_rgh, Initial residual = 0.000591752, Final residual = 2.21475e-05, No Iterations 14
time step continuity errors : sum local = 1.10903e-05, global = 7.59072e-07, cumulative = 0.000378093
DICPCG:  Solving for p_rgh, Initial residual = 9.12323e-05, Final residual = 8.63823e-08, No Iterations 48
time step continuity errors : sum local = 4.39232e-08, global = -1.50256e-09, cumulative = 0.000378091
ExecutionTime = 1.36 s  ClockTime = 2 s

Courant Number mean: 0.0774387 max: 0.853998
Interface Courant Number mean: 0.00747498 max: 0.853998
deltaT = 0.00153794
Time = 0.143848

smoothSolver:  Solving for alpha.water, Initial residual = 0.00357909, Final residual = 9.16056e-10, No Iterations 3
Phase-1 volume fraction = 0.130194  Min(alpha.water) = -9.48856e-17  Max(alpha.water) = 1
MULES: Correcting alpha.water
MULES: Correcting alpha.water
Phase-1 volume fraction = 0.130194  Min(alpha.water) = -8.59572e-12  Max(alpha.water) = 1
DICPCG:  Solving for p_rgh, Initial residual = 0.0221038, Final residual = 0.00047437, No Iterations 1
time step continuity errors : sum local = 0.000247048, global = -9.46694e-09, cumulative = 0.000378082
DICPCG:  Solving for p_rgh, Initial residual = 0.000563615, Final residual = 1.91747e-05, No Iterations 14
time step continuity errors : sum local = 9.81659e-06, global = 5.53012e-07, cumulative = 0.000378635
DICPCG:  Solving for p_rgh, Initial residual = 8.53793e-05, Final residual = 9.39256e-08, No Iterations 46
time step continuity errors : sum local = 4.8688e-08, global = -3.51875e-09, cumulative = 0.000378631
ExecutionTime = 1.39 s  ClockTime = 2 s

Courant Number mean: 0.0778562 max: 0.845042
Interface Courant Number mean: 0.00817545 max: 0.845042
deltaT = 0.00153794
Time = 0.145386

smoothSolver:  Solving for alpha.water, Initial residual = 0.00361002, Final residual = 9.13552e-10, No Iterations 3
Phase-1 volume fraction = 0.130194  Min(alpha.water) = -8.4734e-17  Max(alpha.water) = 1
MULES: Correcting alpha.water
MULES: Correcting alpha.water
Phase-1 volume fraction = 0.130194  Min(alpha.water) = -8.31136e-12  Max(alpha.water) = 1
DICPCG:  Solving for p_rgh, Initial residual = 0.0203013, Final residual = 0.000497411, No Iterations 1
time step continuity errors : sum local = 0.000256211, global = -5.48373e-09, cumulative = 0.000378626
DICPCG:  Solving for p_rgh, Initial residual = 0.000590468, Final residual = 2.93257e-05, No Iterations 10
time step continuity errors : sum local = 1.48682e-05, global = 2.13021e-07, cumulative = 0.000378839
DICPCG:  Solving for p_rgh, Initial residual = 9.29164e-05, Final residual = 8.08467e-08, No Iterations 48
time step continuity errors : sum local = 4.13257e-08, global = -7.96605e-10, cumulative = 0.000378838
ExecutionTime = 1.41 s  ClockTime = 2 s

Courant Number mean: 0.078233 max: 0.839191
Interface Courant Number mean: 0.0077684 max: 0.839191
deltaT = 0.00153794
Time = 0.146924

smoothSolver:  Solving for alpha.water, Initial residual = 0.0036243, Final residual = 9.28365e-10, No Iterations 3
Phase-1 volume fraction = 0.130194  Min(alpha.water) = -7.39277e-17  Max(alpha.water) = 1
MULES: Correcting alpha.water
MULES: Correcting alpha.water
Phase-1 volume fraction = 0.130194  Min(alpha.water) = -4.15266e-11  Max(alpha.water) = 1
DICPCG:  Solving for p_rgh, Initial residual = 0.0202056, Final residual = 0.000528771, No Iterations 1
time step continuity errors : sum local = 0.000270889, global = -2.41603e-09, cumulative = 0.000378836
DICPCG:  Solving for p_rgh, Initial residual = 0.000621774, Final residual = 2.82369e-05, No Iterations 10
time step continuity errors : sum local = 1.42521e-05, global = 1.86551e-07, cumulative = 0.000379022
DICPCG:  Solving for p_rgh, Initial residual = 9.45356e-05, Final residual = 6.91255e-08, No Iterations 48
time step continuity errors : sum local = 3.52589e-08, global = -1.49489e-09, cumulative = 0.000379021
ExecutionTime = 1.44 s  ClockTime = 2 s

Courant Number mean: 0.0785088 max: 0.832373
Interface Courant Number mean: 0.0077472 max: 0.832373
deltaT = 0.00153794
Time = 0.148462

smoothSolver:  Solving for alpha.water, Initial residual = 0.00368116, Final residual = 9.38761e-10, No Iterations 3
Phase-1 volume fraction = 0.130194  Min(alpha.water) = -6.22401e-17  Max(alpha.water) = 1
MULES: Correcting alpha.water
MULES: Correcting alpha.water
Phase-1 volume fraction = 0.130194  Min(alpha.water) = -4.99391e-11  Max(alpha.water) = 1
DICPCG:  Solving for p_rgh, Initial residual = 0.0190887, Final residual = 0.000533809, No Iterations 1
time step continuity errors : sum local = 0.000272982, global = -8.15585e-09, cumulative = 0.000379012
DICPCG:  Solving for p_rgh, Initial residual = 0.000628538, Final residual = 2.9248e-05, No Iterations 9
time step continuity errors : sum local = 1.47476e-05, global = 5.61878e-08, cumulative = 0.000379069
DICPCG:  Solving for p_rgh, Initial residual = 9.45142e-05, Final residual = 8.90279e-08, No Iterations 47
time step continuity errors : sum local = 4.53179e-08, global = -2.93031e-09, cumulative = 0.000379066
ExecutionTime = 1.46 s  ClockTime = 2 s

Courant Number mean: 0.0787581 max: 0.823918
Interface Courant Number mean: 0.0079857 max: 0.823918
deltaT = 0.00153794
Time = 0.15

smoothSolver:  Solving for alpha.water, Initial residual = 0.00372204, Final residual = 9.52204e-10, No Iterations 3
Phase-1 volume fraction = 0.130194  Min(alpha.water) = -4.9384e-17  Max(alpha.water) = 1
MULES: Correcting alpha.water
MULES: Correcting alpha.water
Phase-1 volume fraction = 0.130194  Min(alpha.water) = -6.33304e-11  Max(alpha.water) = 1
DICPCG:  Solving for p_rgh, Initial residual = 0.0175346, Final residual = 0.000556642, No Iterations 1
time step continuity errors : sum local = 0.000284143, global = -4.6027e-09, cumulative = 0.000379061
DICPCG:  Solving for p_rgh, Initial residual = 0.000652046, Final residual = 2.9515e-05, No Iterations 9
time step continuity errors : sum local = 1.4878e-05, global = 5.56128e-08, cumulative = 0.000379117
DICPCG:  Solving for p_rgh, Initial residual = 9.62413e-05, Final residual = 8.34397e-08, No Iterations 31
time step continuity errors : sum local = 4.23746e-08, global = -1.62866e-08, cumulative = 0.0003791
ExecutionTime = 1.48 s  ClockTime = 2 s

Courant Number mean: 0.07898 max: 0.816463
Interface Courant Number mean: 0.00839293 max: 0.816463
deltaT = 0.00172414
Time = 0.151724

smoothSolver:  Solving for alpha.water, Initial residual = 0.00426898, Final residual = 1.93116e-09, No Iterations 3
Phase-1 volume fraction = 0.130194  Min(alpha.water) = -3.69261e-17  Max(alpha.water) = 1
MULES: Correcting alpha.water
MULES: Correcting alpha.water
Phase-1 volume fraction = 0.130194  Min(alpha.water) = -9.61713e-11  Max(alpha.water) = 1
DICPCG:  Solving for p_rgh, Initial residual = 0.019615, Final residual = 0.000620874, No Iterations 1
time step continuity errors : sum local = 0.000398385, global = -3.68062e-08, cumulative = 0.000379064
DICPCG:  Solving for p_rgh, Initial residual = 0.000722053, Final residual = 3.20652e-05, No Iterations 9
time step continuity errors : sum local = 2.02795e-05, global = 3.12516e-08, cumulative = 0.000379095
DICPCG:  Solving for p_rgh, Initial residual = 0.000119681, Final residual = 9.20019e-08, No Iterations 47
time step continuity errors : sum local = 5.8602e-08, global = -3.12857e-10, cumulative = 0.000379095
ExecutionTime = 1.52 s  ClockTime = 2 s

Courant Number mean: 0.0888321 max: 0.922912
Interface Courant Number mean: 0.00973833 max: 0.922912
deltaT = 0.00185676
Time = 0.153581

smoothSolver:  Solving for alpha.water, Initial residual = 0.00464374, Final residual = 3.0522e-09, No Iterations 3
Phase-1 volume fraction = 0.130194  Min(alpha.water) = -3.38476e-17  Max(alpha.water) = 1
MULES: Correcting alpha.water
MULES: Correcting alpha.water
Phase-1 volume fraction = 0.130194  Min(alpha.water) = -1.00197e-10  Max(alpha.water) = 1
DICPCG:  Solving for p_rgh, Initial residual = 0.0183027, Final residual = 0.000638734, No Iterations 1
time step continuity errors : sum local = 0.000470643, global = 1.41264e-08, cumulative = 0.000379109
DICPCG:  Solving for p_rgh, Initial residual = 0.000752116, Final residual = 3.38568e-05, No Iterations 8
time step continuity errors : sum local = 2.46337e-05, global = 8.02751e-09, cumulative = 0.000379117
DICPCG:  Solving for p_rgh, Initial residual = 0.000129979, Final residual = 9.45837e-08, No Iterations 48
time step continuity errors : sum local = 6.9151e-08, global = -2.32937e-09, cumulative = 0.000379114
ExecutionTime = 1.54 s  ClockTime = 2 s

Courant Number mean: 0.0960807 max: 0.978471
Interface Courant Number mean: 0.0105345 max: 0.978471
deltaT = 0.00185676
Time = 0.155438

smoothSolver:  Solving for alpha.water, Initial residual = 0.0047349, Final residual = 3.08969e-09, No Iterations 3
Phase-1 volume fraction = 0.130194  Min(alpha.water) = -3.00586e-17  Max(alpha.water) = 1
MULES: Correcting alpha.water
MULES: Correcting alpha.water
Phase-1 volume fraction = 0.130194  Min(alpha.water) = -6.90524e-11  Max(alpha.water) = 1
DICPCG:  Solving for p_rgh, Initial residual = 0.0182604, Final residual = 0.000613303, No Iterations 1
time step continuity errors : sum local = 0.000457429, global = -2.8023e-09, cumulative = 0.000379112
DICPCG:  Solving for p_rgh, Initial residual = 0.00072142, Final residual = 3.04509e-05, No Iterations 8
time step continuity errors : sum local = 2.24179e-05, global = -2.09983e-08, cumulative = 0.000379091
DICPCG:  Solving for p_rgh, Initial residual = 0.000121259, Final residual = 8.80468e-08, No Iterations 48
time step continuity errors : sum local = 6.5071e-08, global = -8.23852e-10, cumulative = 0.00037909
ExecutionTime = 1.56 s  ClockTime = 2 s

Courant Number mean: 0.0963533 max: 0.950709
Interface Courant Number mean: 0.0106849 max: 0.950709
deltaT = 0.00193749
Time = 0.157375

smoothSolver:  Solving for alpha.water, Initial residual = 0.00505996, Final residual = 3.96229e-09, No Iterations 3
Phase-1 volume fraction = 0.130194  Min(alpha.water) = -2.58058e-17  Max(alpha.water) = 1
MULES: Correcting alpha.water
MULES: Correcting alpha.water
Phase-1 volume fraction = 0.130194  Min(alpha.water) = -1.04263e-06  Max(alpha.water) = 1
DICPCG:  Solving for p_rgh, Initial residual = 0.0186283, Final residual = 0.000647663, No Iterations 1
time step continuity errors : sum local = 0.00053099, global = -9.82614e-10, cumulative = 0.000379089
DICPCG:  Solving for p_rgh, Initial residual = 0.000749567, Final residual = 3.51557e-05, No Iterations 8
time step continuity errors : sum local = 2.8515e-05, global = -2.74967e-08, cumulative = 0.000379061
DICPCG:  Solving for p_rgh, Initial residual = 0.000132118, Final residual = 6.26751e-08, No Iterations 50
time step continuity errors : sum local = 5.10821e-08, global = -2.61384e-09, cumulative = 0.000379059
ExecutionTime = 1.58 s  ClockTime = 2 s

Courant Number mean: 0.100727 max: 0.960709
Interface Courant Number mean: 0.0109923 max: 0.960709
deltaT = 0.00193749
Time = 0.159313

smoothSolver:  Solving for alpha.water, Initial residual = 0.00509243, Final residual = 3.94636e-09, No Iterations 3
Phase-1 volume fraction = 0.130194  Min(alpha.water) = -2.13968e-17  Max(alpha.water) = 1
MULES: Correcting alpha.water
MULES: Correcting alpha.water
Phase-1 volume fraction = 0.130194  Min(alpha.water) = -4.51325e-07  Max(alpha.water) = 1
DICPCG:  Solving for p_rgh, Initial residual = 0.0214273, Final residual = 0.000578381, No Iterations 1
time step continuity errors : sum local = 0.000498196, global = 7.07537e-10, cumulative = 0.000379059
DICPCG:  Solving for p_rgh, Initial residual = 0.000678842, Final residual = 3.04015e-05, No Iterations 9
time step continuity errors : sum local = 2.58166e-05, global = -1.89069e-08, cumulative = 0.00037904
DICPCG:  Solving for p_rgh, Initial residual = 0.00012301, Final residual = 6.38982e-08, No Iterations 50
time step continuity errors : sum local = 5.46122e-08, global = -2.55323e-09, cumulative = 0.000379038
ExecutionTime = 1.61 s  ClockTime = 2 s

Courant Number mean: 0.100846 max: 0.932189
Interface Courant Number mean: 0.0119867 max: 0.932189
deltaT = 0.00203437
Time = 0.161347

smoothSolver:  Solving for alpha.water, Initial residual = 0.00535244, Final residual = 5.16114e-09, No Iterations 3
Phase-1 volume fraction = 0.130194  Min(alpha.water) = -1.62398e-17  Max(alpha.water) = 1
MULES: Correcting alpha.water
MULES: Correcting alpha.water
Phase-1 volume fraction = 0.130194  Min(alpha.water) = -1.25149e-06  Max(alpha.water) = 1
DICPCG:  Solving for p_rgh, Initial residual = 0.02226, Final residual = 0.000580221, No Iterations 1
time step continuity errors : sum local = 0.000549595, global = -7.01902e-10, cumulative = 0.000379037
DICPCG:  Solving for p_rgh, Initial residual = 0.000689263, Final residual = 3.12736e-05, No Iterations 8
time step continuity errors : sum local = 2.91452e-05, global = -3.45396e-08, cumulative = 0.000379003
DICPCG:  Solving for p_rgh, Initial residual = 0.000133295, Final residual = 7.03803e-08, No Iterations 50
time step continuity errors : sum local = 6.59539e-08, global = -3.13667e-09, cumulative = 0.000378999
ExecutionTime = 1.63 s  ClockTime = 2 s

Courant Number mean: 0.106188 max: 0.973882
Interface Courant Number mean: 0.0122446 max: 0.973882
deltaT = 0.00203437
Time = 0.163381

smoothSolver:  Solving for alpha.water, Initial residual = 0.00540871, Final residual = 5.09773e-09, No Iterations 3
Phase-1 volume fraction = 0.130194  Min(alpha.water) = -1.06661e-17  Max(alpha.water) = 1
MULES: Correcting alpha.water
MULES: Correcting alpha.water
Phase-1 volume fraction = 0.130194  Min(alpha.water) = -2.13867e-07  Max(alpha.water) = 1
DICPCG:  Solving for p_rgh, Initial residual = 0.0200288, Final residual = 0.000535861, No Iterations 1
time step continuity errors : sum local = 0.000499335, global = 4.11165e-09, cumulative = 0.000379004
[...]
time step continuity errors : sum local = 1.67244e-05, global = -6.80337e-07, cumulative = 0.00207703
DICPCG:  Solving for p_rgh, Initial residual = 0.000115809, Final residual = 8.04115e-08, No Iterations 52
time step continuity errors : sum local = 4.95155e-08, global = -5.22182e-09, cumulative = 0.00207703
ExecutionTime = 12.84 s  ClockTime = 16 s

Courant Number mean: 0.147424 max: 0.728421
Interface Courant Number mean: 0.0293911 max: 0.562264
deltaT = 0.00238095
Time = 0.952381

smoothSolver:  Solving for alpha.water, Initial residual = 0.00707864, Final residual = 4.40108e-09, No Iterations 3
Phase-1 volume fraction = 0.1277  Min(alpha.water) = -1.31707e-25  Max(alpha.water) = 1
MULES: Correcting alpha.water
MULES: Correcting alpha.water
Phase-1 volume fraction = 0.1277  Min(alpha.water) = -3.95009e-07  Max(alpha.water) = 1
DICPCG:  Solving for p_rgh, Initial residual = 0.024781, Final residual = 0.000552899, No Iterations 2
time step continuity errors : sum local = 0.000421571, global = 9.125e-09, cumulative = 0.00207704
DICPCG:  Solving for p_rgh, Initial residual = 0.000737527, Final residual = 3.13267e-05, No Iterations 8
time step continuity errors : sum local = 2.36468e-05, global = -1.06979e-06, cumulative = 0.00207597
DICPCG:  Solving for p_rgh, Initial residual = 0.000141289, Final residual = 9.03645e-08, No Iterations 47
time step continuity errors : sum local = 6.84101e-08, global = -2.57728e-09, cumulative = 0.00207597
ExecutionTime = 12.86 s  ClockTime = 16 s

Courant Number mean: 0.166467 max: 0.798424
Interface Courant Number mean: 0.0334536 max: 0.637121
deltaT = 0.0026455
Time = 0.955026

smoothSolver:  Solving for alpha.water, Initial residual = 0.0077189, Final residual = 7.76957e-09, No Iterations 3
Phase-1 volume fraction = 0.1277  Min(alpha.water) = -1.25247e-25  Max(alpha.water) = 1
MULES: Correcting alpha.water
MULES: Correcting alpha.water
Phase-1 volume fraction = 0.1277  Min(alpha.water) = -8.02906e-07  Max(alpha.water) = 1
DICPCG:  Solving for p_rgh, Initial residual = 0.0255368, Final residual = 0.000581839, No Iterations 2
time step continuity errors : sum local = 0.000536333, global = 2.1249e-08, cumulative = 0.00207599
DICPCG:  Solving for p_rgh, Initial residual = 0.000749796, Final residual = 3.25769e-05, No Iterations 8
time step continuity errors : sum local = 2.98249e-05, global = -1.98934e-06, cumulative = 0.002074
DICPCG:  Solving for p_rgh, Initial residual = 0.000150166, Final residual = 7.70109e-08, No Iterations 50
time step continuity errors : sum local = 7.06641e-08, global = 3.24868e-09, cumulative = 0.002074
ExecutionTime = 12.89 s  ClockTime = 16 s

Courant Number mean: 0.185493 max: 0.861985
Interface Courant Number mean: 0.0374558 max: 0.744933
deltaT = 0.00281085
Time = 0.957837

smoothSolver:  Solving for alpha.water, Initial residual = 0.00810566, Final residual = 1.76374e-10, No Iterations 4
Phase-1 volume fraction = 0.1277  Min(alpha.water) = -1.18691e-25  Max(alpha.water) = 1
MULES: Correcting alpha.water
MULES: Correcting alpha.water
Phase-1 volume fraction = 0.1277  Min(alpha.water) = -1.06087e-06  Max(alpha.water) = 1
DICPCG:  Solving for p_rgh, Initial residual = 0.0270979, Final residual = 0.000542167, No Iterations 2
time step continuity errors : sum local = 0.00057458, global = 4.77661e-08, cumulative = 0.00207405
DICPCG:  Solving for p_rgh, Initial residual = 0.000720383, Final residual = 3.33132e-05, No Iterations 8
time step continuity errors : sum local = 3.49492e-05, global = -1.90499e-06, cumulative = 0.00207214
DICPCG:  Solving for p_rgh, Initial residual = 0.000158859, Final residual = 9.80896e-08, No Iterations 52
time step continuity errors : sum local = 1.03021e-07, global = -1.44478e-08, cumulative = 0.00207213
ExecutionTime = 12.91 s  ClockTime = 16 s

Courant Number mean: 0.197752 max: 0.885036
Interface Courant Number mean: 0.0392384 max: 0.806056
deltaT = 0.00301162
Time = 0.960849

smoothSolver:  Solving for alpha.water, Initial residual = 0.00866584, Final residual = 2.97849e-10, No Iterations 4
Phase-1 volume fraction = 0.1277  Min(alpha.water) = -1.12003e-25  Max(alpha.water) = 1
MULES: Correcting alpha.water
MULES: Correcting alpha.water
Phase-1 volume fraction = 0.1277  Min(alpha.water) = -2.4967e-06  Max(alpha.water) = 1
DICPCG:  Solving for p_rgh, Initial residual = 0.0278767, Final residual = 0.000583898, No Iterations 2
time step continuity errors : sum local = 0.000687444, global = -2.29713e-08, cumulative = 0.00207211
DICPCG:  Solving for p_rgh, Initial residual = 0.000788873, Final residual = 2.92229e-05, No Iterations 8
time step continuity errors : sum local = 3.39905e-05, global = -2.95219e-06, cumulative = 0.00206915
DICPCG:  Solving for p_rgh, Initial residual = 0.000172098, Final residual = 9.80499e-08, No Iterations 51
time step continuity errors : sum local = 1.14269e-07, global = -1.38255e-09, cumulative = 0.00206915
ExecutionTime = 12.93 s  ClockTime = 16 s

Courant Number mean: 0.212573 max: 0.908617
Interface Courant Number mean: 0.0425042 max: 0.798745
deltaT = 0.00326259
Time = 0.964112

smoothSolver:  Solving for alpha.water, Initial residual = 0.0092458, Final residual = 5.34567e-10, No Iterations 4
Phase-1 volume fraction = 0.1277  Min(alpha.water) = -1.05131e-25  Max(alpha.water) = 1
MULES: Correcting alpha.water
MULES: Correcting alpha.water
Phase-1 volume fraction = 0.1277  Min(alpha.water) = -4.44203e-06  Max(alpha.water) = 1
DICPCG:  Solving for p_rgh, Initial residual = 0.0287103, Final residual = 0.000611846, No Iterations 2
time step continuity errors : sum local = 0.000818366, global = 2.96928e-08, cumulative = 0.00206918
DICPCG:  Solving for p_rgh, Initial residual = 0.000814347, Final residual = 4.05671e-05, No Iterations 7
time step continuity errors : sum local = 5.36374e-05, global = -4.72309e-06, cumulative = 0.00206446
DICPCG:  Solving for p_rgh, Initial residual = 0.000185842, Final residual = 9.00259e-08, No Iterations 50
time step continuity errors : sum local = 1.1923e-07, global = -5.91224e-09, cumulative = 0.00206445
ExecutionTime = 12.96 s  ClockTime = 16 s

Courant Number mean: 0.231001 max: 0.963727
Interface Courant Number mean: 0.0455363 max: 0.895236
deltaT = 0.00326259
Time = 0.967374

smoothSolver:  Solving for alpha.water, Initial residual = 0.00907908, Final residual = 5.59325e-10, No Iterations 4
Phase-1 volume fraction = 0.1277  Min(alpha.water) = -9.86559e-26  Max(alpha.water) = 1
MULES: Correcting alpha.water
MULES: Correcting alpha.water
Phase-1 volume fraction = 0.1277  Min(alpha.water) = -4.31358e-06  Max(alpha.water) = 1
DICPCG:  Solving for p_rgh, Initial residual = 0.0269804, Final residual = 0.000599552, No Iterations 2
time step continuity errors : sum local = 0.00080126, global = 2.32961e-08, cumulative = 0.00206448
DICPCG:  Solving for p_rgh, Initial residual = 0.000799624, Final residual = 2.66765e-05, No Iterations 8
time step continuity errors : sum local = 3.52512e-05, global = -3.47098e-06, cumulative = 0.00206101
DICPCG:  Solving for p_rgh, Initial residual = 0.000175393, Final residual = 9.51445e-08, No Iterations 51
time step continuity errors : sum local = 1.25594e-07, global = -1.80892e-09, cumulative = 0.002061
ExecutionTime = 12.99 s  ClockTime = 16 s

Courant Number mean: 0.231871 max: 0.958065
Interface Courant Number mean: 0.0453075 max: 0.912019
deltaT = 0.00326259
Time = 0.970637

smoothSolver:  Solving for alpha.water, Initial residual = 0.00892859, Final residual = 6.24365e-10, No Iterations 4
Phase-1 volume fraction = 0.1277  Min(alpha.water) = -9.25565e-26  Max(alpha.water) = 1
MULES: Correcting alpha.water
MULES: Correcting alpha.water
Phase-1 volume fraction = 0.1277  Min(alpha.water) = -2.73285e-06  Max(alpha.water) = 1
DICPCG:  Solving for p_rgh, Initial residual = 0.0264293, Final residual = 0.000641921, No Iterations 2
time step continuity errors : sum local = 0.000864933, global = -1.26582e-07, cumulative = 0.00206088
DICPCG:  Solving for p_rgh, Initial residual = 0.000829437, Final residual = 2.72842e-05, No Iterations 8
time step continuity errors : sum local = 3.64246e-05, global = -3.87326e-06, cumulative = 0.002057
DICPCG:  Solving for p_rgh, Initial residual = 0.000182185, Final residual = 9.08903e-08, No Iterations 51
time step continuity errors : sum local = 1.21728e-07, global = -4.12901e-09, cumulative = 0.002057
ExecutionTime = 13.01 s  ClockTime = 16 s

Courant Number mean: 0.232774 max: 0.967219
Interface Courant Number mean: 0.0446697 max: 0.852567
deltaT = 0.00326259
Time = 0.973899

smoothSolver:  Solving for alpha.water, Initial residual = 0.0088399, Final residual = 6.56856e-10, No Iterations 4
Phase-1 volume fraction = 0.1277  Min(alpha.water) = -8.68166e-26  Max(alpha.water) = 1
MULES: Correcting alpha.water
MULES: Correcting alpha.water
Phase-1 volume fraction = 0.1277  Min(alpha.water) = -1.31399e-06  Max(alpha.water) = 1
DICPCG:  Solving for p_rgh, Initial residual = 0.0277201, Final residual = 0.000614645, No Iterations 2
time step continuity errors : sum local = 0.000840677, global = -2.1758e-07, cumulative = 0.00205678
DICPCG:  Solving for p_rgh, Initial residual = 0.000808581, Final residual = 3.05321e-05, No Iterations 8
time step continuity errors : sum local = 4.13037e-05, global = -2.54958e-06, cumulative = 0.00205423
DICPCG:  Solving for p_rgh, Initial residual = 0.000185746, Final residual = 9.80554e-08, No Iterations 51
time step continuity errors : sum local = 1.33212e-07, global = -6.4096e-09, cumulative = 0.00205423
ExecutionTime = 13.03 s  ClockTime = 16 s

Courant Number mean: 0.23387 max: 0.969548
Interface Courant Number mean: 0.0446741 max: 0.875063
deltaT = 0.00326259
Time = 0.977162

smoothSolver:  Solving for alpha.water, Initial residual = 0.00885879, Final residual = 7.05994e-10, No Iterations 4
Phase-1 volume fraction = 0.1277  Min(alpha.water) = -8.14132e-26  Max(alpha.water) = 1
MULES: Correcting alpha.water
MULES: Correcting alpha.water
Phase-1 volume fraction = 0.1277  Min(alpha.water) = -6.8646e-06  Max(alpha.water) = 1
DICPCG:  Solving for p_rgh, Initial residual = 0.0276197, Final residual = 0.000614141, No Iterations 2
time step continuity errors : sum local = 0.000845132, global = -4.19112e-07, cumulative = 0.00205381
DICPCG:  Solving for p_rgh, Initial residual = 0.00080117, Final residual = 2.75429e-05, No Iterations 8
time step continuity errors : sum local = 3.745e-05, global = -3.34277e-06, cumulative = 0.00205046
DICPCG:  Solving for p_rgh, Initial residual = 0.000181567, Final residual = 7.83245e-08, No Iterations 51
time step continuity errors : sum local = 1.06813e-07, global = -6.62464e-09, cumulative = 0.00205046
ExecutionTime = 13.06 s  ClockTime = 17 s

Courant Number mean: 0.2349 max: 0.989353
Interface Courant Number mean: 0.0459975 max: 0.886761
deltaT = 0.00326259
Time = 0.980424

smoothSolver:  Solving for alpha.water, Initial residual = 0.00881659, Final residual = 8.0614e-10, No Iterations 4
Phase-1 volume fraction = 0.1277  Min(alpha.water) = -7.63287e-26  Max(alpha.water) = 1
MULES: Correcting alpha.water
MULES: Correcting alpha.water
Phase-1 volume fraction = 0.1277  Min(alpha.water) = -3.09327e-06  Max(alpha.water) = 1
DICPCG:  Solving for p_rgh, Initial residual = 0.0283081, Final residual = 0.000656247, No Iterations 2
time step continuity errors : sum local = 0.000899704, global = -5.50119e-07, cumulative = 0.00204991
DICPCG:  Solving for p_rgh, Initial residual = 0.000835504, Final residual = 2.64937e-05, No Iterations 8
time step continuity errors : sum local = 3.58846e-05, global = -2.69042e-06, cumulative = 0.00204722
DICPCG:  Solving for p_rgh, Initial residual = 0.000184795, Final residual = 9.44915e-08, No Iterations 47
time step continuity errors : sum local = 1.28334e-07, global = 3.21603e-09, cumulative = 0.00204722
ExecutionTime = 13.09 s  ClockTime = 17 s

Courant Number mean: 0.235921 max: 1.01494
Interface Courant Number mean: 0.0450037 max: 0.834207
deltaT = 0.00279651
Time = 0.983221

smoothSolver:  Solving for alpha.water, Initial residual = 0.00753404, Final residual = 3.0752e-10, No Iterations 4
Phase-1 volume fraction = 0.1277  Min(alpha.water) = -7.2228e-26  Max(alpha.water) = 1
MULES: Correcting alpha.water
MULES: Correcting alpha.water
Phase-1 volume fraction = 0.1277  Min(alpha.water) = -2.32601e-06  Max(alpha.water) = 1
DICPCG:  Solving for p_rgh, Initial residual = 0.0253401, Final residual = 0.000575628, No Iterations 2
time step continuity errors : sum local = 0.000601914, global = -4.60718e-07, cumulative = 0.00204676
DICPCG:  Solving for p_rgh, Initial residual = 0.000739035, Final residual = 2.40268e-05, No Iterations 8
time step continuity errors : sum local = 2.48495e-05, global = -1.64871e-06, cumulative = 0.00204511
DICPCG:  Solving for p_rgh, Initial residual = 0.000147422, Final residual = 8.58006e-08, No Iterations 51
time step continuity errors : sum local = 8.91528e-08, global = 3.83316e-09, cumulative = 0.00204511
ExecutionTime = 13.11 s  ClockTime = 17 s

Courant Number mean: 0.203169 max: 0.887497
Interface Courant Number mean: 0.0385452 max: 0.727288
deltaT = 0.00279651
Time = 0.986017

smoothSolver:  Solving for alpha.water, Initial residual = 0.00751637, Final residual = 3.64585e-10, No Iterations 4
Phase-1 volume fraction = 0.1277  Min(alpha.water) = -6.83287e-26  Max(alpha.water) = 1
MULES: Correcting alpha.water
MULES: Correcting alpha.water
Phase-1 volume fraction = 0.1277  Min(alpha.water) = -2.57821e-06  Max(alpha.water) = 1
DICPCG:  Solving for p_rgh, Initial residual = 0.024943, Final residual = 0.000647994, No Iterations 2
time step continuity errors : sum local = 0.000680927, global = -6.54075e-07, cumulative = 0.00204446
DICPCG:  Solving for p_rgh, Initial residual = 0.00081056, Final residual = 2.66223e-05, No Iterations 8
time step continuity errors : sum local = 2.76691e-05, global = -1.98112e-06, cumulative = 0.00204248
DICPCG:  Solving for p_rgh, Initial residual = 0.000163707, Final residual = 7.99123e-08, No Iterations 51
time step continuity errors : sum local = 8.34803e-08, global = 4.69346e-09, cumulative = 0.00204248
ExecutionTime = 13.13 s  ClockTime = 17 s

Courant Number mean: 0.204162 max: 0.901985
Interface Courant Number mean: 0.0388866 max: 0.732259
deltaT = 0.00279651
Time = 0.988814

smoothSolver:  Solving for alpha.water, Initial residual = 0.00753764, Final residual = 4.28174e-10, No Iterations 4
Phase-1 volume fraction = 0.1277  Min(alpha.water) = -6.46232e-26  Max(alpha.water) = 1
MULES: Correcting alpha.water
MULES: Correcting alpha.water
Phase-1 volume fraction = 0.1277  Min(alpha.water) = -2.27349e-06  Max(alpha.water) = 1
DICPCG:  Solving for p_rgh, Initial residual = 0.0260189, Final residual = 0.00068527, No Iterations 2
time step continuity errors : sum local = 0.000725588, global = -7.44977e-07, cumulative = 0.00204174
DICPCG:  Solving for p_rgh, Initial residual = 0.000849648, Final residual = 2.98691e-05, No Iterations 8
time step continuity errors : sum local = 3.12623e-05, global = -4.06286e-07, cumulative = 0.00204133
DICPCG:  Solving for p_rgh, Initial residual = 0.000174198, Final residual = 7.90607e-08, No Iterations 51
time step continuity errors : sum local = 8.31653e-08, global = 1.84538e-09, cumulative = 0.00204133
ExecutionTime = 13.16 s  ClockTime = 17 s

Courant Number mean: 0.205237 max: 0.913062
Interface Courant Number mean: 0.0391333 max: 0.70437
deltaT = 0.00279651
Time = 0.99161

smoothSolver:  Solving for alpha.water, Initial residual = 0.00758885, Final residual = 4.88667e-10, No Iterations 4
Phase-1 volume fraction = 0.1277  Min(alpha.water) = -6.11014e-26  Max(alpha.water) = 1
MULES: Correcting alpha.water
MULES: Correcting alpha.water
Phase-1 volume fraction = 0.1277  Min(alpha.water) = -9.81474e-06  Max(alpha.water) = 1
DICPCG:  Solving for p_rgh, Initial residual = 0.0271715, Final residual = 0.00064589, No Iterations 2
time step continuity errors : sum local = 0.000676232, global = -9.55023e-07, cumulative = 0.00204038
DICPCG:  Solving for p_rgh, Initial residual = 0.000820145, Final residual = 3.24778e-05, No Iterations 8
time step continuity errors : sum local = 3.35685e-05, global = -7.89933e-07, cumulative = 0.00203959
DICPCG:  Solving for p_rgh, Initial residual = 0.00016359, Final residual = 8.14526e-08, No Iterations 52
time step continuity errors : sum local = 8.4386e-08, global = -5.91228e-09, cumulative = 0.00203958
ExecutionTime = 13.18 s  ClockTime = 17 s

Courant Number mean: 0.206348 max: 0.920406
Interface Courant Number mean: 0.0390132 max: 0.699109
deltaT = 0.00279651
Time = 0.994407

smoothSolver:  Solving for alpha.water, Initial residual = 0.00769997, Final residual = 5.74731e-10, No Iterations 4
Phase-1 volume fraction = 0.1277  Min(alpha.water) = -5.77546e-26  Max(alpha.water) = 1
MULES: Correcting alpha.water
MULES: Correcting alpha.water
Phase-1 volume fraction = 0.1277  Min(alpha.water) = -2.54092e-05  Max(alpha.water) = 1
DICPCG:  Solving for p_rgh, Initial residual = 0.0263318, Final residual = 0.000712758, No Iterations 2
time step continuity errors : sum local = 0.000735796, global = -1.18383e-06, cumulative = 0.0020384
DICPCG:  Solving for p_rgh, Initial residual = 0.000901004, Final residual = 3.54766e-05, No Iterations 8
time step continuity errors : sum local = 3.62278e-05, global = -1.76398e-09, cumulative = 0.0020384
DICPCG:  Solving for p_rgh, Initial residual = 0.000179859, Final residual = 9.42671e-08, No Iterations 52
time step continuity errors : sum local = 9.63886e-08, global = -7.15935e-09, cumulative = 0.00203839
ExecutionTime = 13.21 s  ClockTime = 17 s

Courant Number mean: 0.207591 max: 0.925215
Interface Courant Number mean: 0.0389049 max: 0.702333
deltaT = 0.00279651
Time = 0.997203

smoothSolver:  Solving for alpha.water, Initial residual = 0.00786739, Final residual = 6.70174e-10, No Iterations 4
Phase-1 volume fraction = 0.1277  Min(alpha.water) = -5.45717e-26  Max(alpha.water) = 1
MULES: Correcting alpha.water
MULES: Correcting alpha.water
Phase-1 volume fraction = 0.1277  Min(alpha.water) = -1.71719e-06  Max(alpha.water) = 1
DICPCG:  Solving for p_rgh, Initial residual = 0.0259022, Final residual = 0.00078744, No Iterations 2
time step continuity errors : sum local = 0.000807379, global = -1.24058e-06, cumulative = 0.00203715
DICPCG:  Solving for p_rgh, Initial residual = 0.000987515, Final residual = 4.02357e-05, No Iterations 8
time step continuity errors : sum local = 4.08034e-05, global = -1.25099e-06, cumulative = 0.0020359
DICPCG:  Solving for p_rgh, Initial residual = 0.000204057, Final residual = 7.94557e-08, No Iterations 53
time step continuity errors : sum local = 8.1106e-08, global = 2.3181e-09, cumulative = 0.0020359
ExecutionTime = 13.23 s  ClockTime = 17 s

Courant Number mean: 0.208635 max: 0.936962
Interface Courant Number mean: 0.0385783 max: 0.692884
deltaT = 0.00279651
Time = 1

smoothSolver:  Solving for alpha.water, Initial residual = 0.00806704, Final residual = 7.82671e-10, No Iterations 4
Phase-1 volume fraction = 0.1277  Min(alpha.water) = -5.15508e-26  Max(alpha.water) = 1
MULES: Correcting alpha.water
MULES: Correcting alpha.water
Phase-1 volume fraction = 0.1277  Min(alpha.water) = -4.15108e-07  Max(alpha.water) = 1
DICPCG:  Solving for p_rgh, Initial residual = 0.029418, Final residual = 0.000746234, No Iterations 2
time step continuity errors : sum local = 0.000766241, global = -1.42781e-06, cumulative = 0.00203447
DICPCG:  Solving for p_rgh, Initial residual = 0.000959965, Final residual = 3.66409e-05, No Iterations 8
time step continuity errors : sum local = 3.71527e-05, global = 1.84255e-06, cumulative = 0.00203632
DICPCG:  Solving for p_rgh, Initial residual = 0.000199352, Final residual = 7.89837e-08, No Iterations 52
time step continuity errors : sum local = 8.07144e-08, global = 1.66202e-09, cumulative = 0.00203632
ExecutionTime = 13.26 s  ClockTime = 17 s

End

