/*---------------------------------------------------------------------------*\
  =========                 |
  \\      /  F ield         | OpenFOAM: The Open Source CFD Toolbox
   \\    /   O peration     | Website:  https://openfoam.org
    \\  /    A nd           | Version:  9
     \\/     M anipulation  |
\*---------------------------------------------------------------------------*/
Build  : 9-b456138dc4bc
Exec   : interFoam
Date   : Dec 05 2021
Time   : 17:37:12
Host   : "pc"
PID    : 13005
I/O    : uncollated
Case   : /home/tw/OpenFOAM/tw-9/run/proyecto00/Curso-CFD-con-OpenFOAM-para-Principiantes-e-Intermedios/06-interFoam/RAS/angledDuct
nProcs : 1
sigFpe : Enabling floating point exception trapping (FOAM_SIGFPE).
fileModificationChecking : Monitoring run-time modified files using timeStampMaster (fileModificationSkew 10)
allowSystemOperations : Allowing user-supplied system call operations

// * * * * * * * * * * * * * * * * * * * * * * * * * * * * * * * * * * * * * //
Create time

Create mesh for time = 0


PIMPLE: No convergence criteria found


PIMPLE: Operating solver in transient mode with 1 outer corrector
PIMPLE: Operating solver in PISO mode


Reading field p_rgh

Reading field U

Reading/calculating face flux field phi

Reading transportProperties

Selecting incompressible transport model Newtonian
Selecting incompressible transport model Newtonian
No phase change: phaseChangeProperties not found
Selecting phaseChange model none
Selecting turbulence model type RAS
Selecting RAS turbulence model kEpsilon
RAS
{
    model           kEpsilon;
    turbulence      on;
    printCoeffs     on;
    Cmu             0.09;
    C1              1.44;
    C2              1.92;
    C3              0;
    sigmak          1;
    sigmaEps        1.3;
}


Reading g

Reading hRef
Calculating field g.h

No MRF models present

Creating fvModels from "constant/fvModels"

Selecting finite volume model type explicitPorositySource
    Name: porosity1
    - selecting cells using cellZone porosity
    - selected 8000 cell(s) with volume 0.00025
Porosity region porosity1:
    selecting model: DarcyForchheimer
    creating porous zone: porosity
No fvConstraints present
GAMGPCG:  Solving for pcorr, Initial residual = 0, Final residual = 0, No Iterations 0
time step continuity errors : sum local = 0, global = 0, cumulative = 0
Courant Number mean: 0 max: 0

Starting time loop

Courant Number mean: 0 max: 0
Interface Courant Number mean: 0 max: 0
deltaT = 0.00119048
Time = 0.00119048

smoothSolver:  Solving for alpha.water, Initial residual = 0, Final residual = 0, No Iterations 0
Phase-1 volume fraction = 0  Min(alpha.water) = 0  Max(alpha.water) = 1
MULES: Correcting alpha.water
MULES: Correcting alpha.water
Phase-1 volume fraction = 0  Min(alpha.water) = 0  Max(alpha.water) = 1
GAMG:  Solving for p_rgh, Initial residual = 1, Final residual = 2.02819, No Iterations 50
time step continuity errors : sum local = 0.000568588, global = -0.000289189, cumulative = -0.000289189
GAMG:  Solving for p_rgh, Initial residual = 0.000197778, Final residual = 9.94041e-05, No Iterations 50
time step continuity errors : sum local = 0.000575661, global = -0.000239117, cumulative = -0.000528306
GAMG:  Solving for p_rgh, Initial residual = 6.60811e-05, Final residual = 3.91576e-05, No Iterations 50
time step continuity errors : sum local = 0.000396784, global = -0.000182616, cumulative = -0.000710922
smoothSolver:  Solving for epsilon, Initial residual = 0.314467, Final residual = 5.51427e-07, No Iterations 3
smoothSolver:  Solving for k, Initial residual = 1, Final residual = 5.01196e-07, No Iterations 4
ExecutionTime = 0.98 s  ClockTime = 1 s

Courant Number mean: 0.00679888 max: 0.0130263
Interface Courant Number mean: 0 max: 0
deltaT = 0.00141156
Time = 0.00260204

smoothSolver:  Solving for alpha.water, Initial residual = 1, Final residual = 8.94312e-12, No Iterations 2
Phase-1 volume fraction = 0.000192334  Min(alpha.water) = 0  Max(alpha.water) = 1
MULES: Correcting alpha.water
MULES: Correcting alpha.water
Phase-1 volume fraction = 0.000192334  Min(alpha.water) = -1.1106e-136  Max(alpha.water) = 1
GAMG:  Solving for p_rgh, Initial residual = 8.92487e-05, Final residual = 1.8319e-06, No Iterations 50
time step continuity errors : sum local = 3.44496e-05, global = -1.66059e-05, cumulative = -0.000727528
GAMG:  Solving for p_rgh, Initial residual = 2.00317e-05, Final residual = 1.57776e-06, No Iterations 50
time step continuity errors : sum local = 3.01354e-05, global = -1.36716e-05, cumulative = -0.000741199
GAMG:  Solving for p_rgh, Initial residual = 5.92172e-06, Final residual = 1.25501e-06, No Iterations 50
time step continuity errors : sum local = 2.42886e-05, global = -1.13394e-05, cumulative = -0.000752539
smoothSolver:  Solving for epsilon, Initial residual = 0.406905, Final residual = 5.41759e-08, No Iterations 4
smoothSolver:  Solving for k, Initial residual = 0.728348, Final residual = 6.75191e-08, No Iterations 5
ExecutionTime = 1.83 s  ClockTime = 2 s

Courant Number mean: 0.0109984 max: 0.0182376
Interface Courant Number mean: 3.82549e-05 max: 0.0161316
deltaT = 0.00167928
Time = 0.00428132

smoothSolver:  Solving for alpha.water, Initial residual = 0.244835, Final residual = 1.14526e-11, No Iterations 2
Phase-1 volume fraction = 0.000421144  Min(alpha.water) = 2.35624e-106  Max(alpha.water) = 1
MULES: Correcting alpha.water
MULES: Correcting alpha.water
Phase-1 volume fraction = 0.000421144  Min(alpha.water) = 2.35624e-106  Max(alpha.water) = 1
GAMG:  Solving for p_rgh, Initial residual = 5.39058e-05, Final residual = 2.28196e-05, No Iterations 50
time step continuity errors : sum local = 0.000602964, global = 0.000275239, cumulative = -0.0004773
GAMG:  Solving for p_rgh, Initial residual = 4.09936e-05, Final residual = 1.84058e-05, No Iterations 50
time step continuity errors : sum local = 0.000407485, global = 0.000170148, cumulative = -0.000307152
GAMG:  Solving for p_rgh, Initial residual = 2.54071e-05, Final residual = 1.62194e-05, No Iterations 50
time step continuity errors : sum local = 0.000307178, global = 0.000137258, cumulative = -0.000169894
smoothSolver:  Solving for epsilon, Initial residual = 0.510344, Final residual = 3.43593e-07, No Iterations 4
smoothSolver:  Solving for k, Initial residual = 0.576338, Final residual = 3.35363e-07, No Iterations 5
ExecutionTime = 2.68 s  ClockTime = 3 s

Courant Number mean: 0.0159704 max: 0.0298477
Interface Courant Number mean: 0.000551184 max: 0.0298477
deltaT = 0.00199414
Time = 0.00627546

smoothSolver:  Solving for alpha.water, Initial residual = 0.149405, Final residual = 1.669e-11, No Iterations 2
Phase-1 volume fraction = 0.000692857  Min(alpha.water) = 7.31799e-99  Max(alpha.water) = 1
MULES: Correcting alpha.water
MULES: Correcting alpha.water
Phase-1 volume fraction = 0.000692857  Min(alpha.water) = 7.29176e-99  Max(alpha.water) = 1
GAMG:  Solving for p_rgh, Initial residual = 0.000103036, Final residual = 1.69156e-05, No Iterations 50
time step continuity errors : sum local = 0.000348985, global = 0.000348572, cumulative = 0.000178679
GAMG:  Solving for p_rgh, Initial residual = 4.12181e-05, Final residual = 2.52981e-05, No Iterations 50
time step continuity errors : sum local = 0.000355056, global = 0.000174632, cumulative = 0.000353311
GAMG:  Solving for p_rgh, Initial residual = 5.49411e-05, Final residual = 4.17468e-05, No Iterations 50
time step continuity errors : sum local = 0.000384065, global = 0.000181373, cumulative = 0.000534684
smoothSolver:  Solving for epsilon, Initial residual = 0.641718, Final residual = 9.38121e-08, No Iterations 5
smoothSolver:  Solving for k, Initial residual = 0.482486, Final residual = 1.42665e-07, No Iterations 6
ExecutionTime = 3.53 s  ClockTime = 4 s

Courant Number mean: 0.019863 max: 0.0466391
Interface Courant Number mean: 0.000855998 max: 0.0466391
deltaT = 0.00234311
Time = 0.00861857

smoothSolver:  Solving for alpha.water, Initial residual = 0.111358, Final residual = 1.18708e-10, No Iterations 2
Phase-1 volume fraction = 0.00101212  Min(alpha.water) = 8.42275e-96  Max(alpha.water) = 1
MULES: Correcting alpha.water
MULES: Correcting alpha.water
Phase-1 volume fraction = 0.00101212  Min(alpha.water) = 8.42274e-96  Max(alpha.water) = 1
GAMG:  Solving for p_rgh, Initial residual = 0.00065421, Final residual = 9.9227e-05, No Iterations 50
time step continuity errors : sum local = 0.000403119, global = 0.000149133, cumulative = 0.000683818
GAMG:  Solving for p_rgh, Initial residual = 0.00263548, Final residual = 0.0018633, No Iterations 50
time step continuity errors : sum local = 0.000414714, global = 0.000174714, cumulative = 0.000858531
GAMG:  Solving for p_rgh, Initial residual = 0.000107713, Final residual = 6.32538e-05, No Iterations 50
time step continuity errors : sum local = 0.000303315, global = 0.000142432, cumulative = 0.00100096
smoothSolver:  Solving for epsilon, Initial residual = 0.800035, Final residual = 6.0527e-07, No Iterations 5
smoothSolver:  Solving for k, Initial residual = 0.418637, Final residual = 6.94087e-07, No Iterations 6
ExecutionTime = 4.43 s  ClockTime = 5 s

Courant Number mean: 0.0225428 max: 0.0697552
Interface Courant Number mean: 0.00127887 max: 0.0697552
deltaT = 0.00276913
Time = 0.0113877

smoothSolver:  Solving for alpha.water, Initial residual = 0.091927, Final residual = 9.81803e-10, No Iterations 2
Phase-1 volume fraction = 0.00138943  Min(alpha.water) = 9.44277e-94  Max(alpha.water) = 1
MULES: Correcting alpha.water
MULES: Correcting alpha.water
Phase-1 volume fraction = 0.00138943  Min(alpha.water) = 9.44276e-94  Max(alpha.water) = 1
GAMG:  Solving for p_rgh, Initial residual = 0.000296968, Final residual = 3.74326e-05, No Iterations 50
time step continuity errors : sum local = 0.00039251, global = -0.00033262, cumulative = 0.000668343
GAMG:  Solving for p_rgh, Initial residual = 7.12919e-05, Final residual = 1.8163e-05, No Iterations 50
time step continuity errors : sum local = 0.000235181, global = -0.00015902, cumulative = 0.000509323
GAMG:  Solving for p_rgh, Initial residual = 2.33957e-05, Final residual = 3.01258e-05, No Iterations 50
time step continuity errors : sum local = 0.000428713, global = -0.000350028, cumulative = 0.000159295
smoothSolver:  Solving for epsilon, Initial residual = 0.927094, Final residual = 3.13789e-07, No Iterations 6
smoothSolver:  Solving for k, Initial residual = 0.35916, Final residual = 4.94775e-07, No Iterations 7
ExecutionTime = 5.36 s  ClockTime = 6 s

Courant Number mean: 0.0235333 max: 0.102851
Interface Courant Number mean: 0.00187756 max: 0.102851
deltaT = 0.00328194
Time = 0.0146696

smoothSolver:  Solving for alpha.water, Initial residual = 0.080256, Final residual = 7.98159e-13, No Iterations 3
Phase-1 volume fraction = 0.00183661  Min(alpha.water) = 0  Max(alpha.water) = 1
MULES: Correcting alpha.water
MULES: Correcting alpha.water
Phase-1 volume fraction = 0.00183661  Min(alpha.water) = 0  Max(alpha.water) = 1
GAMG:  Solving for p_rgh, Initial residual = 0.000257147, Final residual = 2.1888e-05, No Iterations 50
time step continuity errors : sum local = 0.000426481, global = 0.000368938, cumulative = 0.000528234
GAMG:  Solving for p_rgh, Initial residual = 7.05188e-05, Final residual = 2.10033e-05, No Iterations 50
time step continuity errors : sum local = 0.000378156, global = 0.000328702, cumulative = 0.000856935
GAMG:  Solving for p_rgh, Initial residual = 3.19244e-05, Final residual = 1.48345e-05, No Iterations 50
time step continuity errors : sum local = 0.000244393, global = 0.000203905, cumulative = 0.00106084
smoothSolver:  Solving for epsilon, Initial residual = 0.838052, Final residual = 2.03861e-07, No Iterations 7
smoothSolver:  Solving for k, Initial residual = 0.316292, Final residual = 5.0725e-07, No Iterations 8
ExecutionTime = 6.24 s  ClockTime = 7 s

Courant Number mean: 0.0318165 max: 0.149939
Interface Courant Number mean: 0.00271086 max: 0.149939
deltaT = 0.00387865
Time = 0.0185483

smoothSolver:  Solving for alpha.water, Initial residual = 0.0721984, Final residual = 1.29201e-11, No Iterations 3
Phase-1 volume fraction = 0.0023651  Min(alpha.water) = 1.08913e-89  Max(alpha.water) = 1
MULES: Correcting alpha.water
MULES: Correcting alpha.water
Phase-1 volume fraction = 0.0023651  Min(alpha.water) = -1.21297e-05  Max(alpha.water) = 1
GAMG:  Solving for p_rgh, Initial residual = 0.000296642, Final residual = 2.3991e-05, No Iterations 50
time step continuity errors : sum local = 0.000479537, global = -0.00011509, cumulative = 0.00094575
GAMG:  Solving for p_rgh, Initial residual = 8.11859e-05, Final residual = 2.77084e-05, No Iterations 50
time step continuity errors : sum local = 0.000395644, global = -9.34101e-05, cumulative = 0.00085234
GAMG:  Solving for p_rgh, Initial residual = 4.91451e-05, Final residual = 3.24628e-05, No Iterations 50
time step continuity errors : sum local = 0.000354133, global = -9.7673e-05, cumulative = 0.000754667
smoothSolver:  Solving for epsilon, Initial residual = 0.713131, Final residual = 1.76743e-07, No Iterations 8
smoothSolver:  Solving for k, Initial residual = 0.289265, Final residual = 6.793e-07, No Iterations 9
ExecutionTime = 7.12 s  ClockTime = 8 s

Courant Number mean: 0.0374915 max: 0.215556
Interface Courant Number mean: 0.00383436 max: 0.215556
deltaT = 0.00452509
Time = 0.0230734

smoothSolver:  Solving for alpha.water, Initial residual = 0.0657092, Final residual = 1.07526e-10, No Iterations 3
Phase-1 volume fraction = 0.00298167  Min(alpha.water) = 0  Max(alpha.water) = 1
MULES: Correcting alpha.water
MULES: Correcting alpha.water
Phase-1 volume fraction = 0.00298167  Min(alpha.water) = -9.25257e-06  Max(alpha.water) = 1
GAMG:  Solving for p_rgh, Initial residual = 0.000626371, Final residual = 0.000121938, No Iterations 50
time step continuity errors : sum local = 0.00131245, global = 0.00110406, cumulative = 0.00185873
GAMG:  Solving for p_rgh, Initial residual = 0.000458292, Final residual = 0.000164243, No Iterations 50
time step continuity errors : sum local = 0.000900385, global = 0.00077505, cumulative = 0.00263378
GAMG:  Solving for p_rgh, Initial residual = 0.000545144, Final residual = 0.000373025, No Iterations 50
time step continuity errors : sum local = 0.000649531, global = 0.000563125, cumulative = 0.00319691
smoothSolver:  Solving for epsilon, Initial residual = 0.639808, Final residual = 9.31874e-07, No Iterations 8
smoothSolver:  Solving for k, Initial residual = 0.268077, Final residual = 9.81976e-07, No Iterations 10
ExecutionTime = 7.99 s  ClockTime = 9 s

Courant Number mean: 0.0506251 max: 0.30225
Interface Courant Number mean: 0.00525668 max: 0.30225
deltaT = 0.00512844
Time = 0.0282018

smoothSolver:  Solving for alpha.water, Initial residual = 0.0593027, Final residual = 4.82477e-10, No Iterations 3
Phase-1 volume fraction = 0.00368045  Min(alpha.water) = 7.85427e-85  Max(alpha.water) = 1
MULES: Correcting alpha.water
MULES: Correcting alpha.water
Phase-1 volume fraction = 0.00368045  Min(alpha.water) = -7.41476e-05  Max(alpha.water) = 1
GAMG:  Solving for p_rgh, Initial residual = 0.00165437, Final residual = 1.54424e-05, No Iterations 28
time step continuity errors : sum local = 7.58975e-05, global = -5.97716e-05, cumulative = 0.00313713
GAMG:  Solving for p_rgh, Initial residual = 0.000141202, Final residual = 0.000100889, No Iterations 50
time step continuity errors : sum local = 0.000824895, global = 0.000504381, cumulative = 0.00364151
GAMG:  Solving for p_rgh, Initial residual = 0.000134619, Final residual = 3.87519e-05, No Iterations 50
time step continuity errors : sum local = 0.000400306, global = 0.000343758, cumulative = 0.00398527
smoothSolver:  Solving for epsilon, Initial residual = 0.492669, Final residual = 7.19295e-07, No Iterations 9
smoothSolver:  Solving for k, Initial residual = 0.243898, Final residual = 4.54624e-07, No Iterations 12
ExecutionTime = 8.81 s  ClockTime = 10 s

Courant Number mean: 0.0597106 max: 0.408455
Interface Courant Number mean: 0.0068895 max: 0.408455
deltaT = 0.00598318
Time = 0.034185

smoothSolver:  Solving for alpha.water, Initial residual = 0.0560307, Final residual = 1.76783e-09, No Iterations 3
Phase-1 volume fraction = 0.00449569  Min(alpha.water) = 1.59646e-82  Max(alpha.water) = 1
MULES: Correcting alpha.water
MULES: Correcting alpha.water
Phase-1 volume fraction = 0.00449569  Min(alpha.water) = -1.28374e-08  Max(alpha.water) = 1
GAMG:  Solving for p_rgh, Initial residual = 0.000574736, Final residual = 2.80919e-06, No Iterations 3
time step continuity errors : sum local = 4.00906e-05, global = 1.40404e-05, cumulative = 0.00399931
GAMG:  Solving for p_rgh, Initial residual = 7.83635e-05, Final residual = 4.71809e-07, No Iterations 8
time step continuity errors : sum local = 6.73569e-06, global = 2.54535e-06, cumulative = 0.00400186
GAMG:  Solving for p_rgh, Initial residual = 2.67286e-05, Final residual = 1.50421e-06, No Iterations 50
time step continuity errors : sum local = 1.87292e-05, global = -1.63248e-05, cumulative = 0.00398553
smoothSolver:  Solving for epsilon, Initial residual = 0.620858, Final residual = 3.69568e-07, No Iterations 11
smoothSolver:  Solving for k, Initial residual = 0.224846, Final residual = 8.62669e-07, No Iterations 13
ExecutionTime = 9.35 s  ClockTime = 11 s

Courant Number mean: 0.0726249 max: 0.56277
Interface Courant Number mean: 0.00915492 max: 0.56277
deltaT = 0.0065815
Time = 0.0407665

smoothSolver:  Solving for alpha.water, Initial residual = 0.0506174, Final residual = 4.6785e-09, No Iterations 3
Phase-1 volume fraction = 0.00539245  Min(alpha.water) = 0  Max(alpha.water) = 1
MULES: Correcting alpha.water
MULES: Correcting alpha.water
Phase-1 volume fraction = 0.00539245  Min(alpha.water) = -1.40432e-05  Max(alpha.water) = 1
GAMG:  Solving for p_rgh, Initial residual = 0.000589299, Final residual = 4.17554e-06, No Iterations 23
time step continuity errors : sum local = 5.83621e-05, global = 4.37035e-05, cumulative = 0.00402924
GAMG:  Solving for p_rgh, Initial residual = 9.51659e-05, Final residual = 4.22438e-05, No Iterations 50
time step continuity errors : sum local = 0.000445955, global = -0.000366733, cumulative = 0.0036625
GAMG:  Solving for p_rgh, Initial residual = 0.000101023, Final residual = 5.12849e-05, No Iterations 50
time step continuity errors : sum local = 0.00049449, global = -0.000367737, cumulative = 0.00329477
smoothSolver:  Solving for epsilon, Initial residual = 0.47995, Final residual = 9.66658e-07, No Iterations 11
smoothSolver:  Solving for k, Initial residual = 0.22294, Final residual = 5.08441e-07, No Iterations 15
ExecutionTime = 10.18 s  ClockTime = 12 s

Courant Number mean: 0.0844073 max: 0.715393
Interface Courant Number mean: 0.0112906 max: 0.715393
deltaT = 0.00740419
Time = 0.0481707

smoothSolver:  Solving for alpha.water, Initial residual = 0.0482604, Final residual = 4.22654e-11, No Iterations 4
Phase-1 volume fraction = 0.00640132  Min(alpha.water) = 0  Max(alpha.water) = 1
MULES: Correcting alpha.water
MULES: Correcting alpha.water
Phase-1 volume fraction = 0.00640132  Min(alpha.water) = -2.39857e-05  Max(alpha.water) = 1
GAMG:  Solving for p_rgh, Initial residual = 0.00107588, Final residual = 4.74445e-05, No Iterations 50
time step continuity errors : sum local = 0.000431928, global = -0.000360313, cumulative = 0.00293445
GAMG:  Solving for p_rgh, Initial residual = 0.000236819, Final residual = 2.00757e-05, No Iterations 50
time step continuity errors : sum local = 0.000140311, global = 6.3095e-05, cumulative = 0.00299755
GAMG:  Solving for p_rgh, Initial residual = 0.00024199, Final residual = 3.33289e-05, No Iterations 50
time step continuity errors : sum local = 0.000100638, global = 5.09185e-05, cumulative = 0.00304847
smoothSolver:  Solving for epsilon, Initial residual = 0.318885, Final residual = 8.49168e-07, No Iterations 12
smoothSolver:  Solving for k, Initial residual = 0.230497, Final residual = 8.2584e-07, No Iterations 16
ExecutionTime = 11.13 s  ClockTime = 13 s

Courant Number mean: 0.102846 max: 0.916772
Interface Courant Number mean: 0.0144408 max: 0.916772
deltaT = 0.00740419
Time = 0.0555749

smoothSolver:  Solving for alpha.water, Initial residual = 0.0438862, Final residual = 7.13348e-11, No Iterations 4
Phase-1 volume fraction = 0.00741018  Min(alpha.water) = 8.96854e-79  Max(alpha.water) = 1
MULES: Correcting alpha.water
MULES: Correcting alpha.water
Phase-1 volume fraction = 0.00741018  Min(alpha.water) = -1.58416e-08  Max(alpha.water) = 1
GAMG:  Solving for p_rgh, Initial residual = 0.00577948, Final residual = 5.04042e-05, No Iterations 14
time step continuity errors : sum local = 8.19126e-05, global = 4.98775e-05, cumulative = 0.00309834
GAMG:  Solving for p_rgh, Initial residual = 0.0029694, Final residual = 0.000184187, No Iterations 50
time step continuity errors : sum local = 9.29346e-05, global = 4.65176e-05, cumulative = 0.00314486
GAMG:  Solving for p_rgh, Initial residual = 0.000192842, Final residual = 2.60434e-05, No Iterations 50
time step continuity errors : sum local = 5.58791e-05, global = 2.97941e-05, cumulative = 0.00317466
smoothSolver:  Solving for epsilon, Initial residual = 0.350144, Final residual = 4.77187e-07, No Iterations 13
smoothSolver:  Solving for k, Initial residual = 0.212592, Final residual = 9.46419e-07, No Iterations 16
ExecutionTime = 11.87 s  ClockTime = 14 s

Courant Number mean: 0.107605 max: 1.02649
Interface Courant Number mean: 0.0159012 max: 1.02649
deltaT = 0.00634645
Time = 0.0619213

smoothSolver:  Solving for alpha.water, Initial residual = 0.0364005, Final residual = 4.66549e-11, No Iterations 4
Phase-1 volume fraction = 0.00827492  Min(alpha.water) = 1.18369e-78  Max(alpha.water) = 1
MULES: Correcting alpha.water
MULES: Correcting alpha.water
Phase-1 volume fraction = 0.00827492  Min(alpha.water) = -2.70904e-08  Max(alpha.water) = 1
GAMG:  Solving for p_rgh, Initial residual = 0.0018809, Final residual = 8.51461e-06, No Iterations 3
time step continuity errors : sum local = 2.99388e-05, global = 2.8032e-06, cumulative = 0.00317746
GAMG:  Solving for p_rgh, Initial residual = 0.000328199, Final residual = 2.22448e-06, No Iterations 4
time step continuity errors : sum local = 7.8164e-06, global = 1.7545e-06, cumulative = 0.00317921
GAMG:  Solving for p_rgh, Initial residual = 5.98469e-05, Final residual = 3.49577e-06, No Iterations 50
time step continuity errors : sum local = 1.22867e-05, global = 1.00787e-05, cumulative = 0.00318929
smoothSolver:  Solving for epsilon, Initial residual = 0.186076, Final residual = 6.93639e-07, No Iterations 11
smoothSolver:  Solving for k, Initial residual = 0.184178, Final residual = 4.61792e-07, No Iterations 15
ExecutionTime = 12.39 s  ClockTime = 14 s

Courant Number mean: 0.0958698 max: 0.963008
Interface Courant Number mean: 0.0146063 max: 0.963008
deltaT = 0.00634645
Time = 0.0682678

smoothSolver:  Solving for alpha.water, Initial residual = 0.0354838, Final residual = 9.88704e-11, No Iterations 4
Phase-1 volume fraction = 0.00913966  Min(alpha.water) = 1.82292e-78  Max(alpha.water) = 1
MULES: Correcting alpha.water
MULES: Correcting alpha.water
Phase-1 volume fraction = 0.00913966  Min(alpha.water) = -3.83166e-08  Max(alpha.water) = 1
GAMG:  Solving for p_rgh, Initial residual = 0.00187427, Final residual = 1.31774e-05, No Iterations 3
time step continuity errors : sum local = 4.72879e-05, global = -6.04329e-07, cumulative = 0.00318869
GAMG:  Solving for p_rgh, Initial residual = 0.000355651, Final residual = 4.27032e-06, No Iterations 50
time step continuity errors : sum local = 1.53104e-05, global = -1.20967e-05, cumulative = 0.00317659
GAMG:  Solving for p_rgh, Initial residual = 7.63819e-05, Final residual = 2.17373e-05, No Iterations 50
time step continuity errors : sum local = 6.75066e-05, global = 4.66022e-05, cumulative = 0.00322319
smoothSolver:  Solving for epsilon, Initial residual = 0.314772, Final residual = 4.38998e-07, No Iterations 12
smoothSolver:  Solving for k, Initial residual = 0.155437, Final residual = 9.19765e-07, No Iterations 14
ExecutionTime = 13.08 s  ClockTime = 15 s

Courant Number mean: 0.0994281 max: 1.04182
Interface Courant Number mean: 0.0156812 max: 1.04182
deltaT = 0.0052887
Time = 0.0735565

smoothSolver:  Solving for alpha.water, Initial residual = 0.0290793, Final residual = 5.32843e-11, No Iterations 4
Phase-1 volume fraction = 0.00986027  Min(alpha.water) = 2.55242e-78  Max(alpha.water) = 1
MULES: Correcting alpha.water
MULES: Correcting alpha.water
Phase-1 volume fraction = 0.00986027  Min(alpha.water) = -1.21167e-08  Max(alpha.water) = 1
GAMG:  Solving for p_rgh, Initial residual = 0.00255538, Final residual = 1.79183e-05, No Iterations 3
time step continuity errors : sum local = 3.3767e-05, global = -1.10582e-05, cumulative = 0.00321214
GAMG:  Solving for p_rgh, Initial residual = 0.00052965, Final residual = 6.48569e-05, No Iterations 50
time step continuity errors : sum local = 0.000122112, global = 0.000106331, cumulative = 0.00331847
GAMG:  Solving for p_rgh, Initial residual = 0.000238309, Final residual = 7.28859e-05, No Iterations 50
time step continuity errors : sum local = 0.000106404, global = 9.27417e-05, cumulative = 0.00341121
smoothSolver:  Solving for epsilon, Initial residual = 0.267348, Final residual = 8.19335e-07, No Iterations 10
smoothSolver:  Solving for k, Initial residual = 0.13296, Final residual = 8.74647e-07, No Iterations 12
ExecutionTime = 13.79 s  ClockTime = 16 s

Courant Number mean: 0.0858788 max: 0.920408
Interface Courant Number mean: 0.0136652 max: 0.920408
deltaT = 0.0052887
Time = 0.0788452

smoothSolver:  Solving for alpha.water, Initial residual = 0.0293009, Final residual = 8.94149e-11, No Iterations 4
Phase-1 volume fraction = 0.0105809  Min(alpha.water) = 4.76057e-78  Max(alpha.water) = 1
MULES: Correcting alpha.water
MULES: Correcting alpha.water
Phase-1 volume fraction = 0.0105809  Min(alpha.water) = -2.37257e-08  Max(alpha.water) = 1
GAMG:  Solving for p_rgh, Initial residual = 0.00445837, Final residual = 3.62341e-05, No Iterations 3
time step continuity errors : sum local = 4.18888e-05, global = -9.11009e-06, cumulative = 0.0034021
GAMG:  Solving for p_rgh, Initial residual = 0.00106022, Final residual = 0.000127999, No Iterations 50
time step continuity errors : sum local = 0.000147822, global = 0.000130201, cumulative = 0.0035323
GAMG:  Solving for p_rgh, Initial residual = 0.000567035, Final residual = 0.000359088, No Iterations 50
time step continuity errors : sum local = 0.000259795, global = 0.000131366, cumulative = 0.00366366
smoothSolver:  Solving for epsilon, Initial residual = 0.25442, Final residual = 7.55672e-07, No Iterations 10
smoothSolver:  Solving for k, Initial residual = 0.127332, Final residual = 7.61922e-07, No Iterations 12
ExecutionTime = 14.51 s  ClockTime = 17 s

Courant Number mean: 0.0875196 max: 0.963646
Interface Courant Number mean: 0.0147363 max: 0.963646
deltaT = 0.0052887
Time = 0.0841339

smoothSolver:  Solving for alpha.water, Initial residual = 0.0304843, Final residual = 1.14781e-10, No Iterations 4
Phase-1 volume fraction = 0.0113015  Min(alpha.water) = 6.99397e-78  Max(alpha.water) = 1
MULES: Correcting alpha.water
MULES: Correcting alpha.water
Phase-1 volume fraction = 0.0113015  Min(alpha.water) = -3.0846e-08  Max(alpha.water) = 1
GAMG:  Solving for p_rgh, Initial residual = 0.0154266, Final residual = 0.000121198, No Iterations 3
time step continuity errors : sum local = 4.74808e-05, global = -1.99485e-05, cumulative = 0.00364372
GAMG:  Solving for p_rgh, Initial residual = 0.00386454, Final residual = 9.02602e-05, No Iterations 50
time step continuity errors : sum local = 3.55563e-05, global = -1.40256e-05, cumulative = 0.00362969
GAMG:  Solving for p_rgh, Initial residual = 0.000416915, Final residual = 3.92902e-05, No Iterations 50
time step continuity errors : sum local = 2.55272e-05, global = -1.25105e-05, cumulative = 0.00361718
smoothSolver:  Solving for epsilon, Initial residual = 0.248779, Final residual = 7.00907e-07, No Iterations 10
smoothSolver:  Solving for k, Initial residual = 0.122467, Final residual = 6.55187e-07, No Iterations 12
ExecutionTime = 15.25 s  ClockTime = 17 s

Courant Number mean: 0.0895081 max: 0.994938
Interface Courant Number mean: 0.0153941 max: 0.994938
deltaT = 0.0052887
Time = 0.0894226

smoothSolver:  Solving for alpha.water, Initial residual = 0.0318634, Final residual = 1.22636e-10, No Iterations 4
Phase-1 volume fraction = 0.0120221  Min(alpha.water) = 7.98404e-78  Max(alpha.water) = 1
MULES: Correcting alpha.water
MULES: Correcting alpha.water
Phase-1 volume fraction = 0.0120221  Min(alpha.water) = -3.4141e-08  Max(alpha.water) = 1
GAMG:  Solving for p_rgh, Initial residual = 0.00560375, Final residual = 1.91127e-05, No Iterations 4
time step continuity errors : sum local = 2.20108e-05, global = -3.96213e-06, cumulative = 0.00361322
GAMG:  Solving for p_rgh, Initial residual = 0.00144891, Final residual = 9.66814e-06, No Iterations 5
time step continuity errors : sum local = 1.11477e-05, global = -3.9966e-06, cumulative = 0.00360922
GAMG:  Solving for p_rgh, Initial residual = 0.000237744, Final residual = 6.62497e-06, No Iterations 50
time step continuity errors : sum local = 7.65106e-06, global = -3.73449e-06, cumulative = 0.00360549
smoothSolver:  Solving for epsilon, Initial residual = 0.247059, Final residual = 6.42729e-07, No Iterations 10
smoothSolver:  Solving for k, Initial residual = 0.119494, Final residual = 5.57181e-07, No Iterations 12
ExecutionTime = 15.81 s  ClockTime = 18 s

Courant Number mean: 0.0914017 max: 1.01512
Interface Courant Number mean: 0.0161338 max: 1.01512
deltaT = 0.0035258
Time = 0.0929484

smoothSolver:  Solving for alpha.water, Initial residual = 0.0229899, Final residual = 2.96868e-09, No Iterations 3
Phase-1 volume fraction = 0.0125025  Min(alpha.water) = -5.27781e-12  Max(alpha.water) = 1
MULES: Correcting alpha.water
MULES: Correcting alpha.water
Phase-1 volume fraction = 0.0125025  Min(alpha.water) = -1.29963e-10  Max(alpha.water) = 1
GAMG:  Solving for p_rgh, Initial residual = 0.00430931, Final residual = 2.14515e-05, No Iterations 3
time step continuity errors : sum local = 1.57105e-05, global = -2.16841e-07, cumulative = 0.00360527
GAMG:  Solving for p_rgh, Initial residual = 0.00113153, Final residual = 9.82711e-06, No Iterations 3
time step continuity errors : sum local = 7.19946e-06, global = 3.94127e-08, cumulative = 0.00360531
GAMG:  Solving for p_rgh, Initial residual = 0.000162658, Final residual = 1.53246e-06, No Iterations 50
time step continuity errors : sum local = 1.12242e-06, global = -9.72435e-07, cumulative = 0.00360434
smoothSolver:  Solving for epsilon, Initial residual = 0.189596, Final residual = 2.78238e-07, No Iterations 8
smoothSolver:  Solving for k, Initial residual = 0.082971, Final residual = 3.21881e-07, No Iterations 9
ExecutionTime = 16.33 s  ClockTime = 19 s

Courant Number mean: 0.0618279 max: 0.683753
Interface Courant Number mean: 0.0112248 max: 0.683753
deltaT = 0.0035258
Time = 0.0964742

smoothSolver:  Solving for alpha.water, Initial residual = 0.0252094, Final residual = 4.84386e-09, No Iterations 3
Phase-1 volume fraction = 0.0129829  Min(alpha.water) = -1.18846e-12  Max(alpha.water) = 1
MULES: Correcting alpha.water
MULES: Correcting alpha.water
Phase-1 volume fraction = 0.0129829  Min(alpha.water) = -4.98747e-10  Max(alpha.water) = 1
GAMG:  Solving for p_rgh, Initial residual = 0.0043417, Final residual = 2.11881e-05, No Iterations 3
time step continuity errors : sum local = 1.5452e-05, global = 2.20501e-07, cumulative = 0.00360456
GAMG:  Solving for p_rgh, Initial residual = 0.00123691, Final residual = 1.04667e-05, No Iterations 3
time step continuity errors : sum local = 7.63682e-06, global = 1.17923e-06, cumulative = 0.00360574
GAMG:  Solving for p_rgh, Initial residual = 0.000184229, Final residual = 1.0204e-05, No Iterations 50
time step continuity errors : sum local = 7.44195e-06, global = -4.8393e-06, cumulative = 0.0036009
smoothSolver:  Solving for epsilon, Initial residual = 0.182536, Final residual = 2.45404e-07, No Iterations 8
smoothSolver:  Solving for k, Initial residual = 0.0814473, Final residual = 2.82557e-07, No Iterations 9
ExecutionTime = 16.82 s  ClockTime = 19 s

Courant Number mean: 0.0625363 max: 0.685949
Interface Courant Number mean: 0.011678 max: 0.685949
deltaT = 0.0035258
Time = 0.1

smoothSolver:  Solving for alpha.water, Initial residual = 0.0255633, Final residual = 7.83928e-09, No Iterations 3
Phase-1 volume fraction = 0.0134633  Min(alpha.water) = -6.79096e-13  Max(alpha.water) = 1
MULES: Correcting alpha.water
MULES: Correcting alpha.water
Phase-1 volume fraction = 0.0134633  Min(alpha.water) = -1.25856e-06  Max(alpha.water) = 1
GAMG:  Solving for p_rgh, Initial residual = 0.00592488, Final residual = 3.04375e-05, No Iterations 3
time step continuity errors : sum local = 1.92972e-05, global = -1.36922e-06, cumulative = 0.00359953
GAMG:  Solving for p_rgh, Initial residual = 0.00160073, Final residual = 1.27448e-05, No Iterations 7
time step continuity errors : sum local = 8.0865e-06, global = 6.19676e-06, cumulative = 0.00360573
GAMG:  Solving for p_rgh, Initial residual = 0.000250527, Final residual = 2.88325e-05, No Iterations 50
time step continuity errors : sum local = 1.8188e-05, global = -1.37449e-05, cumulative = 0.00359198
smoothSolver:  Solving for epsilon, Initial residual = 0.171947, Final residual = 2.11021e-07, No Iterations 8
smoothSolver:  Solving for k, Initial residual = 0.0799062, Final residual = 9.0169e-07, No Iterations 8
ExecutionTime = 17.33 s  ClockTime = 20 s

Courant Number mean: 0.0629588 max: 0.680756
Interface Courant Number mean: 0.0118031 max: 0.680756
deltaT = 0.004
Time = 0.104

smoothSolver:  Solving for alpha.water, Initial residual = 0.0308435, Final residual = 1.77562e-10, No Iterations 4
Phase-1 volume fraction = 0.0140084  Min(alpha.water) = -1.9108e-14  Max(alpha.water) = 1
MULES: Correcting alpha.water
MULES: Correcting alpha.water
Phase-1 volume fraction = 0.0140084  Min(alpha.water) = -9.36568e-05  Max(alpha.water) = 1
GAMG:  Solving for p_rgh, Initial residual = 0.00751897, Final residual = 5.06012e-05, No Iterations 3
time step continuity errors : sum local = 3.27377e-05, global = -7.56038e-06, cumulative = 0.00358442
GAMG:  Solving for p_rgh, Initial residual = 0.0020166, Final residual = 1.5728e-05, No Iterations 5
time step continuity errors : sum local = 1.01935e-05, global = 8.2746e-06, cumulative = 0.00359269
GAMG:  Solving for p_rgh, Initial residual = 0.000333594, Final residual = 3.82258e-05, No Iterations 50
time step continuity errors : sum local = 2.46958e-05, global = -1.89295e-05, cumulative = 0.00357376
smoothSolver:  Solving for epsilon, Initial residual = 0.176726, Final residual = 5.2555e-07, No Iterations 8
smoothSolver:  Solving for k, Initial residual = 0.0875258, Final residual = 6.57817e-07, No Iterations 9
ExecutionTime = 17.84 s  ClockTime = 21 s

Courant Number mean: 0.071618 max: 0.761609
Interface Courant Number mean: 0.0135992 max: 0.761609
deltaT = 0.00436364
Time = 0.108364

smoothSolver:  Solving for alpha.water, Initial residual = 0.0334016, Final residual = 4.47833e-10, No Iterations 4
Phase-1 volume fraction = 0.0146029  Min(alpha.water) = -5.55551e-05  Max(alpha.water) = 1
MULES: Correcting alpha.water
MULES: Correcting alpha.water
Phase-1 volume fraction = 0.0146029  Min(alpha.water) = -5.55551e-05  Max(alpha.water) = 1
GAMG:  Solving for p_rgh, Initial residual = 0.012493, Final residual = 7.03006e-05, No Iterations 3
time step continuity errors : sum local = 3.14838e-05, global = -7.65203e-06, cumulative = 0.00356611
GAMG:  Solving for p_rgh, Initial residual = 0.00344091, Final residual = 2.84261e-05, No Iterations 5
time step continuity errors : sum local = 1.27861e-05, global = 5.92268e-06, cumulative = 0.00357204
GAMG:  Solving for p_rgh, Initial residual = 0.000637426, Final residual = 6.3093e-05, No Iterations 50
time step continuity errors : sum local = 2.45084e-05, global = -8.55869e-06, cumulative = 0.00356348
smoothSolver:  Solving for epsilon, Initial residual = 0.175128, Final residual = 9.03045e-07, No Iterations 8
smoothSolver:  Solving for k, Initial residual = 0.0923661, Final residual = 3.84889e-07, No Iterations 10
ExecutionTime = 18.34 s  ClockTime = 21 s

Courant Number mean: 0.0782918 max: 0.805402
Interface Courant Number mean: 0.0157113 max: 0.805402
deltaT = 0.00482297
Time = 0.113187

smoothSolver:  Solving for alpha.water, Initial residual = 0.0378216, Final residual = 8.99172e-10, No Iterations 4
Phase-1 volume fraction = 0.0152601  Min(alpha.water) = -3.14746e-05  Max(alpha.water) = 1
MULES: Correcting alpha.water
MULES: Correcting alpha.water
Phase-1 volume fraction = 0.0152601  Min(alpha.water) = -3.14746e-05  Max(alpha.water) = 1.00002
GAMG:  Solving for p_rgh, Initial residual = 0.0297703, Final residual = 0.000149605, No Iterations 3
time step continuity errors : sum local = 3.56123e-05, global = 5.0547e-06, cumulative = 0.00356853
GAMG:  Solving for p_rgh, Initial residual = 0.00772567, Final residual = 3.80303e-05, No Iterations 4
time step continuity errors : sum local = 9.13388e-06, global = 5.50103e-06, cumulative = 0.00357403
GAMG:  Solving for p_rgh, Initial residual = 0.0012104, Final residual = 5.85848e-05, No Iterations 50
time step continuity errors : sum local = 1.39357e-05, global = 6.23906e-06, cumulative = 0.00358027
smoothSolver:  Solving for epsilon, Initial residual = 0.173494, Final residual = 4.43956e-07, No Iterations 9
smoothSolver:  Solving for k, Initial residual = 0.0982967, Final residual = 8.01468e-07, No Iterations 10
ExecutionTime = 18.86 s  ClockTime = 22 s

Courant Number mean: 0.0863883 max: 0.906751
Interface Courant Number mean: 0.0173183 max: 0.906751
deltaT = 0.00510667
Time = 0.118293

smoothSolver:  Solving for alpha.water, Initial residual = 0.0394014, Final residual = 1.17624e-09, No Iterations 4
Phase-1 volume fraction = 0.0159559  Min(alpha.water) = -1.69837e-05  Max(alpha.water) = 1
MULES: Correcting alpha.water
MULES: Correcting alpha.water
Phase-1 volume fraction = 0.0159559  Min(alpha.water) = -1.68129e-05  Max(alpha.water) = 1.00001
GAMG:  Solving for p_rgh, Initial residual = 0.0664614, Final residual = 0.000340875, No Iterations 3
time step continuity errors : sum local = 4.49482e-05, global = 8.66311e-07, cumulative = 0.00358114
GAMG:  Solving for p_rgh, Initial residual = 0.0173365, Final residual = 8.29946e-05, No Iterations 3
time step continuity errors : sum local = 1.09567e-05, global = 4.84461e-06, cumulative = 0.00358598
GAMG:  Solving for p_rgh, Initial residual = 0.00264435, Final residual = 9.87101e-05, No Iterations 50
time step continuity errors : sum local = 1.31004e-05, global = 4.81088e-06, cumulative = 0.00359079
smoothSolver:  Solving for epsilon, Initial residual = 0.167388, Final residual = 5.92771e-07, No Iterations 9
smoothSolver:  Solving for k, Initial residual = 0.100412, Final residual = 3.97608e-07, No Iterations 11
ExecutionTime = 19.38 s  ClockTime = 23 s

Courant Number mean: 0.0913978 max: 0.969814
Interface Courant Number mean: 0.0181323 max: 0.969814
deltaT = 0.00510667
Time = 0.1234

smoothSolver:  Solving for alpha.water, Initial residual = 0.0392077, Final residual = 1.12295e-09, No Iterations 4
Phase-1 volume fraction = 0.0166517  Min(alpha.water) = -8.67809e-06  Max(alpha.water) = 1
MULES: Correcting alpha.water
MULES: Correcting alpha.water
Phase-1 volume fraction = 0.0166517  Min(alpha.water) = -8.34278e-06  Max(alpha.water) = 1.00011
GAMG:  Solving for p_rgh, Initial residual = 0.0395166, Final residual = 0.000187511, No Iterations 3
time step continuity errors : sum local = 4.48958e-05, global = -3.9384e-07, cumulative = 0.0035904
GAMG:  Solving for p_rgh, Initial residual = 0.0101966, Final residual = 5.22354e-05, No Iterations 3
time step continuity errors : sum local = 1.25489e-05, global = -1.8797e-07, cumulative = 0.00359021
GAMG:  Solving for p_rgh, Initial residual = 0.00150487, Final residual = 2.31364e-06, No Iterations 50
time step continuity errors : sum local = 5.55812e-07, global = -2.12699e-07, cumulative = 0.00359
smoothSolver:  Solving for epsilon, Initial residual = 0.153324, Final residual = 4.75163e-07, No Iterations 9
smoothSolver:  Solving for k, Initial residual = 0.0977911, Final residual = 9.4811e-07, No Iterations 10
ExecutionTime = 19.87 s  ClockTime = 23 s

Courant Number mean: 0.0912693 max: 0.971779
Interface Courant Number mean: 0.0175086 max: 0.971779
deltaT = 0.00510667
Time = 0.128507

smoothSolver:  Solving for alpha.water, Initial residual = 0.0393244, Final residual = 1.03694e-09, No Iterations 4
Phase-1 volume fraction = 0.0173475  Min(alpha.water) = -3.89149e-06  Max(alpha.water) = 1
MULES: Correcting alpha.water
MULES: Correcting alpha.water
Phase-1 volume fraction = 0.0173475  Min(alpha.water) = -3.46205e-06  Max(alpha.water) = 1.00008
GAMG:  Solving for p_rgh, Initial residual = 0.0146517, Final residual = 0.00014031, No Iterations 2
time step continuity errors : sum local = 0.000101196, global = -8.29612e-07, cumulative = 0.00358917
GAMG:  Solving for p_rgh, Initial residual = 0.0039544, Final residual = 1.48729e-05, No Iterations 3
time step continuity errors : sum local = 1.07361e-05, global = -1.33052e-06, cumulative = 0.00358784
GAMG:  Solving for p_rgh, Initial residual = 0.000581726, Final residual = 7.51768e-06, No Iterations 50
time step continuity errors : sum local = 5.42085e-06, global = -9.92068e-07, cumulative = 0.00358685
smoothSolver:  Solving for epsilon, Initial residual = 0.141965, Final residual = 3.8608e-07, No Iterations 9
smoothSolver:  Solving for k, Initial residual = 0.0948071, Final residual = 7.96587e-07, No Iterations 10
ExecutionTime = 20.36 s  ClockTime = 24 s

Courant Number mean: 0.0911104 max: 0.978379
Interface Courant Number mean: 0.0172133 max: 0.978379
deltaT = 0.00510667
Time = 0.133613

smoothSolver:  Solving for alpha.water, Initial residual = 0.0404506, Final residual = 9.60407e-10, No Iterations 4
Phase-1 volume fraction = 0.0180433  Min(alpha.water) = 1.70097e-77  Max(alpha.water) = 1
MULES: Correcting alpha.water
MULES: Correcting alpha.water
Phase-1 volume fraction = 0.0180433  Min(alpha.water) = -2.63689e-05  Max(alpha.water) = 1.00007
GAMG:  Solving for p_rgh, Initial residual = 0.0221221, Final residual = 0.000212133, No Iterations 2
time step continuity errors : sum local = 0.000114329, global = -1.05692e-06, cumulative = 0.00358579
GAMG:  Solving for p_rgh, Initial residual = 0.00607346, Final residual = 2.07937e-05, No Iterations 3
time step continuity errors : sum local = 1.12103e-05, global = -3.08256e-06, cumulative = 0.00358271
GAMG:  Solving for p_rgh, Initial residual = 0.000901561, Final residual = 7.58269e-05, No Iterations 50
time step continuity errors : sum local = 4.07633e-05, global = 2.94793e-05, cumulative = 0.00361219
smoothSolver:  Solving for epsilon, Initial residual = 0.133344, Final residual = 3.05334e-07, No Iterations 9
smoothSolver:  Solving for k, Initial residual = 0.0920916, Final residual = 6.55849e-07, No Iterations 10
ExecutionTime = 20.84 s  ClockTime = 24 s

Courant Number mean: 0.0912536 max: 0.970353
Interface Courant Number mean: 0.0164491 max: 0.970353
deltaT = 0.00510667
Time = 0.13872

smoothSolver:  Solving for alpha.water, Initial residual = 0.0430419, Final residual = 8.69147e-10, No Iterations 4
Phase-1 volume fraction = 0.0187392  Min(alpha.water) = -1.56046e-05  Max(alpha.water) = 1
MULES: Correcting alpha.water
MULES: Correcting alpha.water
Phase-1 volume fraction = 0.0187392  Min(alpha.water) = -0.000226385  Max(alpha.water) = 1.00065
GAMG:  Solving for p_rgh, Initial residual = 0.0306393, Final residual = 0.000161492, No Iterations 3
time step continuity errors : sum local = 6.49637e-05, global = 2.0125e-05, cumulative = 0.00363231
GAMG:  Solving for p_rgh, Initial residual = 0.00768069, Final residual = 3.21396e-05, No Iterations 3
time step continuity errors : sum local = 1.29388e-05, global = -4.47147e-06, cumulative = 0.00362784
GAMG:  Solving for p_rgh, Initial residual = 0.00113266, Final residual = 4.46971e-05, No Iterations 50
time step continuity errors : sum local = 1.79897e-05, global = -1.20419e-06, cumulative = 0.00362664
smoothSolver:  Solving for epsilon, Initial residual = 0.124732, Final residual = 9.44605e-07, No Iterations 8
smoothSolver:  Solving for k, Initial residual = 0.0890557, Final residual = 5.49779e-07, No Iterations 10
ExecutionTime = 21.34 s  ClockTime = 25 s

Courant Number mean: 0.0909895 max: 0.977548
Interface Courant Number mean: 0.0160451 max: 0.977548
deltaT = 0.00510667
Time = 0.143827

smoothSolver:  Solving for alpha.water, Initial residual = 0.0440859, Final residual = 7.26409e-10, No Iterations 4
Phase-1 volume fraction = 0.019435  Min(alpha.water) = -0.000136159  Max(alpha.water) = 1
MULES: Correcting alpha.water
MULES: Correcting alpha.water
Phase-1 volume fraction = 0.019435  Min(alpha.water) = -0.000159496  Max(alpha.water) = 1.0004
GAMG:  Solving for p_rgh, Initial residual = 0.0894233, Final residual = 0.000887942, No Iterations 2
time step continuity errors : sum local = 0.000134138, global = -6.68372e-06, cumulative = 0.00361995
GAMG:  Solving for p_rgh, Initial residual = 0.020284, Final residual = 9.25656e-05, No Iterations 4
time step continuity errors : sum local = 1.40789e-05, global = -5.77726e-06, cumulative = 0.00361417
GAMG:  Solving for p_rgh, Initial residual = 0.00317857, Final residual = 4.85715e-05, No Iterations 50
time step continuity errors : sum local = 7.19392e-06, global = -6.45624e-07, cumulative = 0.00361353
smoothSolver:  Solving for epsilon, Initial residual = 0.116035, Final residual = 7.47346e-07, No Iterations 8
smoothSolver:  Solving for k, Initial residual = 0.0857492, Final residual = 4.46627e-07, No Iterations 10
ExecutionTime = 21.84 s  ClockTime = 25 s

Courant Number mean: 0.0912428 max: 0.947431
Interface Courant Number mean: 0.0164197 max: 0.947431
deltaT = 0.00510667
Time = 0.148933

smoothSolver:  Solving for alpha.water, Initial residual = 0.0448351, Final residual = 6.71366e-10, No Iterations 4
Phase-1 volume fraction = 0.0201308  Min(alpha.water) = -9.56483e-05  Max(alpha.water) = 1
MULES: Correcting alpha.water
MULES: Correcting alpha.water
Phase-1 volume fraction = 0.0201308  Min(alpha.water) = -9.56483e-05  Max(alpha.water) = 1.0003
GAMG:  Solving for p_rgh, Initial residual = 0.0118574, Final residual = 4.70775e-05, No Iterations 3
time step continuity errors : sum local = 5.63909e-05, global = -1.21921e-07, cumulative = 0.00361341
GAMG:  Solving for p_rgh, Initial residual = 0.0027568, Final residual = 1.36335e-05, No Iterations 3
time step continuity errors : sum local = 1.63714e-05, global = 3.28998e-07, cumulative = 0.00361374
GAMG:  Solving for p_rgh, Initial residual = 0.000413842, Final residual = 3.82335e-06, No Iterations 50
time step continuity errors : sum local = 4.59197e-06, global = -1.2343e-06, cumulative = 0.0036125
smoothSolver:  Solving for epsilon, Initial residual = 0.107364, Final residual = 6.21195e-07, No Iterations 8
smoothSolver:  Solving for k, Initial residual = 0.0828835, Final residual = 3.81049e-07, No Iterations 10
ExecutionTime = 22.34 s  ClockTime = 26 s

Courant Number mean: 0.0915355 max: 0.975208
Interface Courant Number mean: 0.0168604 max: 0.975208
deltaT = 0.00510667
Time = 0.15404

smoothSolver:  Solving for alpha.water, Initial residual = 0.0464581, Final residual = 6.84314e-10, No Iterations 4
Phase-1 volume fraction = 0.0208266  Min(alpha.water) = -5.63977e-05  Max(alpha.water) = 1
MULES: Correcting alpha.water
MULES: Correcting alpha.water
Phase-1 volume fraction = 0.0208266  Min(alpha.water) = -5.63977e-05  Max(alpha.water) = 1.00014
GAMG:  Solving for p_rgh, Initial residual = 0.0118345, Final residual = 5.79425e-05, No Iterations 3
time step continuity errors : sum local = 6.51079e-05, global = -2.94889e-07, cumulative = 0.00361221
GAMG:  Solving for p_rgh, Initial residual = 0.00289972, Final residual = 1.75493e-05, No Iterations 3
time step continuity errors : sum local = 1.97873e-05, global = 9.47888e-07, cumulative = 0.00361316
GAMG:  Solving for p_rgh, Initial residual = 0.000462499, Final residual = 7.98928e-06, No Iterations 50
time step continuity errors : sum local = 9.00544e-06, global = 1.09574e-06, cumulative = 0.00361425
smoothSolver:  Solving for epsilon, Initial residual = 0.0987599, Final residual = 5.39371e-07, No Iterations 8
smoothSolver:  Solving for k, Initial residual = 0.0795151, Final residual = 3.31914e-07, No Iterations 10
ExecutionTime = 22.86 s  ClockTime = 27 s

Courant Number mean: 0.0918733 max: 0.995787
Interface Courant Number mean: 0.0174637 max: 0.995787
deltaT = 0.00510667
Time = 0.159147

smoothSolver:  Solving for alpha.water, Initial residual = 0.0439357, Final residual = 8.34404e-10, No Iterations 4
Phase-1 volume fraction = 0.0215224  Min(alpha.water) = -3.26771e-05  Max(alpha.water) = 1
MULES: Correcting alpha.water
MULES: Correcting alpha.water
Phase-1 volume fraction = 0.0215224  Min(alpha.water) = -3.26771e-05  Max(alpha.water) = 1.00017
GAMG:  Solving for p_rgh, Initial residual = 0.0182295, Final residual = 8.54832e-05, No Iterations 3
time step continuity errors : sum local = 6.72001e-05, global = 2.32993e-06, cumulative = 0.00361658
GAMG:  Solving for p_rgh, Initial residual = 0.00444094, Final residual = 2.3699e-05, No Iterations 3
time step continuity errors : sum local = 1.86966e-05, global = 2.09828e-06, cumulative = 0.00361868
GAMG:  Solving for p_rgh, Initial residual = 0.00071545, Final residual = 4.38819e-05, No Iterations 50
time step continuity errors : sum local = 3.46047e-05, global = -2.69045e-05, cumulative = 0.00359177
smoothSolver:  Solving for epsilon, Initial residual = 0.0924444, Final residual = 4.5508e-07, No Iterations 8
smoothSolver:  Solving for k, Initial residual = 0.0763503, Final residual = 8.84142e-07, No Iterations 9
ExecutionTime = 23.35 s  ClockTime = 27 s

Courant Number mean: 0.0917883 max: 1.01305
Interface Courant Number mean: 0.0177438 max: 1.01305
deltaT = 0.00453926
Time = 0.163686

smoothSolver:  Solving for alpha.water, Initial residual = 0.0389502, Final residual = 3.99999e-10, No Iterations 4
Phase-1 volume fraction = 0.0221409  Min(alpha.water) = -1.95961e-05  Max(alpha.water) = 1
MULES: Correcting alpha.water
MULES: Correcting alpha.water
Phase-1 volume fraction = 0.0221409  Min(alpha.water) = -1.95961e-05  Max(alpha.water) = 1.00011
GAMG:  Solving for p_rgh, Initial residual = 0.0226534, Final residual = 0.000135033, No Iterations 3
time step continuity errors : sum local = 7.12557e-05, global = -1.81729e-05, cumulative = 0.0035736
GAMG:  Solving for p_rgh, Initial residual = 0.00562437, Final residual = 2.98043e-05, No Iterations 3
time step continuity errors : sum local = 1.58066e-05, global = 2.28642e-07, cumulative = 0.00357383
GAMG:  Solving for p_rgh, Initial residual = 0.000870677, Final residual = 3.3295e-05, No Iterations 50
time step continuity errors : sum local = 1.76752e-05, global = 6.94214e-06, cumulative = 0.00358077
smoothSolver:  Solving for epsilon, Initial residual = 0.0795767, Final residual = 6.37048e-07, No Iterations 7
smoothSolver:  Solving for k, Initial residual = 0.0664157, Final residual = 9.59081e-07, No Iterations 8
ExecutionTime = 23.85 s  ClockTime = 28 s

Courant Number mean: 0.0820328 max: 0.89475
Interface Courant Number mean: 0.0155443 max: 0.89475
deltaT = 0.00453926
Time = 0.168225

smoothSolver:  Solving for alpha.water, Initial residual = 0.0370045, Final residual = 3.94641e-10, No Iterations 4
Phase-1 volume fraction = 0.0227594  Min(alpha.water) = -1.87445e-06  Max(alpha.water) = 1
MULES: Correcting alpha.water
MULES: Correcting alpha.water
Phase-1 volume fraction = 0.0227594  Min(alpha.water) = -1.87445e-06  Max(alpha.water) = 1
GAMG:  Solving for p_rgh, Initial residual = 0.0289519, Final residual = 0.000126578, No Iterations 3
time step continuity errors : sum local = 5.45419e-05, global = 6.53045e-06, cumulative = 0.0035873
GAMG:  Solving for p_rgh, Initial residual = 0.00691742, Final residual = 3.55956e-05, No Iterations 3
time step continuity errors : sum local = 1.5359e-05, global = 2.05326e-06, cumulative = 0.00358936
GAMG:  Solving for p_rgh, Initial residual = 0.00111577, Final residual = 0.000216987, No Iterations 50
time step continuity errors : sum local = 9.35683e-05, global = -1.11982e-05, cumulative = 0.00357816
smoothSolver:  Solving for epsilon, Initial residual = 0.0752791, Final residual = 5.61464e-07, No Iterations 7
smoothSolver:  Solving for k, Initial residual = 0.064286, Final residual = 8.52802e-07, No Iterations 8
ExecutionTime = 24.35 s  ClockTime = 28 s

Courant Number mean: 0.0822771 max: 0.902823
Interface Courant Number mean: 0.015782 max: 0.902823
deltaT = 0.00453926
Time = 0.172764

smoothSolver:  Solving for alpha.water, Initial residual = 0.0360263, Final residual = 3.28025e-10, No Iterations 4
Phase-1 volume fraction = 0.0233779  Min(alpha.water) = -3.5681e-07  Max(alpha.water) = 1
MULES: Correcting alpha.water
MULES: Correcting alpha.water
Phase-1 volume fraction = 0.0233779  Min(alpha.water) = -9.3773e-05  Max(alpha.water) = 1
GAMG:  Solving for p_rgh, Initial residual = 0.0477835, Final residual = 0.000234801, No Iterations 3
time step continuity errors : sum local = 6.76118e-05, global = 7.82116e-06, cumulative = 0.00358598
GAMG:  Solving for p_rgh, Initial residual = 0.0115256, Final residual = 5.47246e-05, No Iterations 3
time step continuity errors : sum local = 1.57448e-05, global = 1.83239e-06, cumulative = 0.00358781
GAMG:  Solving for p_rgh, Initial residual = 0.00190891, Final residual = 7.73397e-07, No Iterations 50
time step continuity errors : sum local = 2.2254e-07, global = -4.60676e-08, cumulative = 0.00358777
smoothSolver:  Solving for epsilon, Initial residual = 0.0721535, Final residual = 4.62364e-07, No Iterations 7
smoothSolver:  Solving for k, Initial residual = 0.0628496, Final residual = 7.28703e-07, No Iterations 8
ExecutionTime = 24.84 s  ClockTime = 29 s

Courant Number mean: 0.0822841 max: 0.882407
Interface Courant Number mean: 0.0155322 max: 0.882407
deltaT = 0.00453926
Time = 0.177304

smoothSolver:  Solving for alpha.water, Initial residual = 0.035275, Final residual = 3.32247e-10, No Iterations 4
Phase-1 volume fraction = 0.0239964  Min(alpha.water) = -5.96995e-05  Max(alpha.water) = 1
MULES: Correcting alpha.water
MULES: Correcting alpha.water
Phase-1 volume fraction = 0.0239964  Min(alpha.water) = -0.000215834  Max(alpha.water) = 1.00003
GAMG:  Solving for p_rgh, Initial residual = 0.0445568, Final residual = 0.000177709, No Iterations 3
time step continuity errors : sum local = 4.9656e-05, global = -3.43491e-06, cumulative = 0.00358433
GAMG:  Solving for p_rgh, Initial residual = 0.0109715, Final residual = 5.48811e-05, No Iterations 3
time step continuity errors : sum local = 1.53449e-05, global = -1.31644e-06, cumulative = 0.00358301
GAMG:  Solving for p_rgh, Initial residual = 0.00191054, Final residual = 8.5692e-05, No Iterations 50
time step continuity errors : sum local = 2.39307e-05, global = 2.10172e-05, cumulative = 0.00360403
smoothSolver:  Solving for epsilon, Initial residual = 0.0676169, Final residual = 4.17267e-07, No Iterations 7
smoothSolver:  Solving for k, Initial residual = 0.0605532, Final residual = 6.57443e-07, No Iterations 8
ExecutionTime = 25.36 s  ClockTime = 30 s

Courant Number mean: 0.0826368 max: 0.871311
Interface Courant Number mean: 0.0151435 max: 0.871311
deltaT = 0.00453926
Time = 0.181843

smoothSolver:  Solving for alpha.water, Initial residual = 0.033858, Final residual = 3.27043e-10, No Iterations 4
Phase-1 volume fraction = 0.0246149  Min(alpha.water) = -0.000136055  Max(alpha.water) = 1
MULES: Correcting alpha.water
MULES: Correcting alpha.water
Phase-1 volume fraction = 0.0246149  Min(alpha.water) = -0.000136055  Max(alpha.water) = 1.00004
GAMG:  Solving for p_rgh, Initial residual = 0.072191, Final residual = 0.000323968, No Iterations 3
time step continuity errors : sum local = 5.66716e-05, global = 1.60836e-05, cumulative = 0.00362011
GAMG:  Solving for p_rgh, Initial residual = 0.0174957, Final residual = 8.81871e-05, No Iterations 3
time step continuity errors : sum local = 1.55318e-05, global = 4.78809e-07, cumulative = 0.00362059
GAMG:  Solving for p_rgh, Initial residual = 0.00314361, Final residual = 3.78922e-05, No Iterations 50
time step continuity errors : sum local = 6.68283e-06, global = -1.61007e-06, cumulative = 0.00361898
smoothSolver:  Solving for epsilon, Initial residual = 0.0637859, Final residual = 3.36327e-07, No Iterations 7
smoothSolver:  Solving for k, Initial residual = 0.0586107, Final residual = 5.53877e-07, No Iterations 8
ExecutionTime = 25.86 s  ClockTime = 30 s

Courant Number mean: 0.0825707 max: 0.846654
Interface Courant Number mean: 0.0152864 max: 0.846654
deltaT = 0.00453926
Time = 0.186382

smoothSolver:  Solving for alpha.water, Initial residual = 0.0340319, Final residual = 3.55432e-10, No Iterations 4
Phase-1 volume fraction = 0.0252334  Min(alpha.water) = -8.49722e-05  Max(alpha.water) = 1
MULES: Correcting alpha.water
MULES: Correcting alpha.water
Phase-1 volume fraction = 0.0252334  Min(alpha.water) = -8.49722e-05  Max(alpha.water) = 1.00002
GAMG:  Solving for p_rgh, Initial residual = 0.0667427, Final residual = 0.000286205, No Iterations 3
time step continuity errors : sum local = 5.48542e-05, global = -7.25768e-06, cumulative = 0.00361173
GAMG:  Solving for p_rgh, Initial residual = 0.0160752, Final residual = 9.02175e-05, No Iterations 3
time step continuity errors : sum local = 1.75511e-05, global = -2.15306e-06, cumulative = 0.00360957
GAMG:  Solving for p_rgh, Initial residual = 0.0028393, Final residual = 8.06113e-05, No Iterations 50
time step continuity errors : sum local = 1.56865e-05, global = 1.18946e-05, cumulative = 0.00362147
smoothSolver:  Solving for epsilon, Initial residual = 0.0598926, Final residual = 3.11917e-07, No Iterations 7
smoothSolver:  Solving for k, Initial residual = 0.0565492, Final residual = 5.05269e-07, No Iterations 8
ExecutionTime = 26.34 s  ClockTime = 31 s

Courant Number mean: 0.082911 max: 0.869344
Interface Courant Number mean: 0.0157153 max: 0.869344
deltaT = 0.00453926
Time = 0.190921

smoothSolver:  Solving for alpha.water, Initial residual = 0.0327779, Final residual = 3.41221e-10, No Iterations 4
Phase-1 volume fraction = 0.0258519  Min(alpha.water) = -5.25351e-05  Max(alpha.water) = 1
MULES: Correcting alpha.water
MULES: Correcting alpha.water
Phase-1 volume fraction = 0.0258519  Min(alpha.water) = -5.25351e-05  Max(alpha.water) = 1.00001
GAMG:  Solving for p_rgh, Initial residual = 0.0356833, Final residual = 0.000179129, No Iterations 3
time step continuity errors : sum local = 5.94249e-05, global = 9.97794e-06, cumulative = 0.00363145
GAMG:  Solving for p_rgh, Initial residual = 0.00875036, Final residual = 6.18349e-05, No Iterations 3
time step continuity errors : sum local = 2.07088e-05, global = 2.13425e-06, cumulative = 0.00363358
GAMG:  Solving for p_rgh, Initial residual = 0.00150469, Final residual = 5.90933e-05, No Iterations 50
time step continuity errors : sum local = 1.97484e-05, global = -3.46249e-06, cumulative = 0.00363012
smoothSolver:  Solving for epsilon, Initial residual = 0.056919, Final residual = 2.56444e-07, No Iterations 7
smoothSolver:  Solving for k, Initial residual = 0.0545881, Final residual = 4.28727e-07, No Iterations 8
ExecutionTime = 26.88 s  ClockTime = 32 s

Courant Number mean: 0.0831327 max: 0.885127
Interface Courant Number mean: 0.0163982 max: 0.885127
deltaT = 0.00453926
Time = 0.195461

smoothSolver:  Solving for alpha.water, Initial residual = 0.0330514, Final residual = 3.31966e-10, No Iterations 4
Phase-1 volume fraction = 0.0264704  Min(alpha.water) = -3.20093e-05  Max(alpha.water) = 1
MULES: Correcting alpha.water
MULES: Correcting alpha.water
Phase-1 volume fraction = 0.0264704  Min(alpha.water) = -3.20093e-05  Max(alpha.water) = 1
GAMG:  Solving for p_rgh, Initial residual = 0.0321585, Final residual = 0.000154047, No Iterations 3
time step continuity errors : sum local = 6.19454e-05, global = -1.84268e-06, cumulative = 0.00362827
GAMG:  Solving for p_rgh, Initial residual = 0.00750443, Final residual = 4.56635e-05, No Iterations 3
time step continuity errors : sum local = 1.84839e-05, global = -1.14106e-06, cumulative = 0.00362713
GAMG:  Solving for p_rgh, Initial residual = 0.0013359, Final residual = 7.14556e-06, No Iterations 50
time step continuity errors : sum local = 2.89118e-06, global = -3.18184e-07, cumulative = 0.00362682
smoothSolver:  Solving for epsilon, Initial residual = 0.054324, Final residual = 2.25966e-07, No Iterations 7
smoothSolver:  Solving for k, Initial residual = 0.0530203, Final residual = 3.79504e-07, No Iterations 8
ExecutionTime = 27.37 s  ClockTime = 32 s

Courant Number mean: 0.0835254 max: 0.894893
Interface Courant Number mean: 0.0166652 max: 0.894893
deltaT = 0.00453926
Time = 0.2

smoothSolver:  Solving for alpha.water, Initial residual = 0.0319234, Final residual = 3.20213e-10, No Iterations 4
Phase-1 volume fraction = 0.0270889  Min(alpha.water) = -1.94573e-05  Max(alpha.water) = 1
MULES: Correcting alpha.water
MULES: Correcting alpha.water
Phase-1 volume fraction = 0.0270889  Min(alpha.water) = -1.94573e-05  Max(alpha.water) = 1
GAMG:  Solving for p_rgh, Initial residual = 0.02, Final residual = 8.21409e-05, No Iterations 3
time step continuity errors : sum local = 5.62328e-05, global = 2.41023e-07, cumulative = 0.00362706
GAMG:  Solving for p_rgh, Initial residual = 0.00465588, Final residual = 2.76033e-05, No Iterations 3
time step continuity errors : sum local = 1.89892e-05, global = 2.71409e-07, cumulative = 0.00362733
GAMG:  Solving for p_rgh, Initial residual = 0.00088377, Final residual = 2.8792e-05, No Iterations 50
time step continuity errors : sum local = 1.9807e-05, global = -1.21035e-05, cumulative = 0.00361522
smoothSolver:  Solving for epsilon, Initial residual = 0.0519702, Final residual = 9.56186e-07, No Iterations 6
smoothSolver:  Solving for k, Initial residual = 0.0514463, Final residual = 3.27971e-07, No Iterations 8
ExecutionTime = 27.86 s  ClockTime = 33 s

Courant Number mean: 0.0838347 max: 0.904609
Interface Courant Number mean: 0.0163434 max: 0.904609
deltaT = 0.005
Time = 0.205

smoothSolver:  Solving for alpha.water, Initial residual = 0.0349282, Final residual = 5.40876e-10, No Iterations 4
Phase-1 volume fraction = 0.0277702  Min(alpha.water) = -6.17692e-07  Max(alpha.water) = 1
MULES: Correcting alpha.water
MULES: Correcting alpha.water
Phase-1 volume fraction = 0.0277702  Min(alpha.water) = -6.17692e-07  Max(alpha.water) = 1.00002
GAMG:  Solving for p_rgh, Initial residual = 0.0231154, Final residual = 0.00011667, No Iterations 3
time step continuity errors : sum local = 8.5849e-05, global = -9.07663e-06, cumulative = 0.00360615
GAMG:  Solving for p_rgh, Initial residual = 0.0057796, Final residual = 3.78375e-05, No Iterations 3
time step continuity errors : sum local = 2.79882e-05, global = -1.93897e-06, cumulative = 0.00360421
GAMG:  Solving for p_rgh, Initial residual = 0.00114798, Final residual = 1.01987e-05, No Iterations 50
time step continuity errors : sum local = 7.55032e-06, global = -5.19686e-06, cumulative = 0.00359901
smoothSolver:  Solving for epsilon, Initial residual = 0.0537148, Final residual = 3.21986e-07, No Iterations 7
smoothSolver:  Solving for k, Initial residual = 0.0546739, Final residual = 6.09159e-07, No Iterations 8
ExecutionTime = 28.38 s  ClockTime = 33 s

Courant Number mean: 0.0925359 max: 0.998311
Interface Courant Number mean: 0.0177672 max: 0.998311
deltaT = 0.005
Time = 0.21

smoothSolver:  Solving for alpha.water, Initial residual = 0.0339452, Final residual = 4.82635e-10, No Iterations 4
Phase-1 volume fraction = 0.0284515  Min(alpha.water) = -2.55163e-07  Max(alpha.water) = 1
MULES: Correcting alpha.water
MULES: Correcting alpha.water
Phase-1 volume fraction = 0.0284515  Min(alpha.water) = -3.90344e-06  Max(alpha.water) = 1.00001
GAMG:  Solving for p_rgh, Initial residual = 0.0274225, Final residual = 0.000124815, No Iterations 3
time step continuity errors : sum local = 7.93419e-05, global = -1.40124e-06, cumulative = 0.00359761
GAMG:  Solving for p_rgh, Initial residual = 0.00721385, Final residual = 3.89454e-05, No Iterations 3
time step continuity errors : sum local = 2.48359e-05, global = 5.04567e-07, cumulative = 0.00359811
GAMG:  Solving for p_rgh, Initial residual = 0.00141454, Final residual = 1.32037e-05, No Iterations 50
time step continuity errors : sum local = 8.42802e-06, global = 3.25782e-06, cumulative = 0.00360137
smoothSolver:  Solving for epsilon, Initial residual = 0.0510751, Final residual = 2.97047e-07, No Iterations 7
smoothSolver:  Solving for k, Initial residual = 0.0530992, Final residual = 5.55337e-07, No Iterations 8
ExecutionTime = 28.87 s  ClockTime = 34 s

Courant Number mean: 0.0926267 max: 0.989659
Interface Courant Number mean: 0.0175455 max: 0.989659
deltaT = 0.005
Time = 0.215

smoothSolver:  Solving for alpha.water, Initial residual = 0.033866, Final residual = 4.06765e-10, No Iterations 4
Phase-1 volume fraction = 0.0291327  Min(alpha.water) = -3.03735e-07  Max(alpha.water) = 1
MULES: Correcting alpha.water
MULES: Correcting alpha.water
Phase-1 volume fraction = 0.0291327  Min(alpha.water) = -0.000144278  Max(alpha.water) = 1
GAMG:  Solving for p_rgh, Initial residual = 0.0343613, Final residual = 0.000162628, No Iterations 3
time step continuity errors : sum local = 7.78506e-05, global = 1.30585e-06, cumulative = 0.00360268
GAMG:  Solving for p_rgh, Initial residual = 0.00894427, Final residual = 4.80079e-05, No Iterations 3
time step continuity errors : sum local = 2.31043e-05, global = 7.78271e-07, cumulative = 0.00360346
GAMG:  Solving for p_rgh, Initial residual = 0.00170583, Final residual = 9.14904e-06, No Iterations 50
time step continuity errors : sum local = 4.40805e-06, global = 1.87381e-06, cumulative = 0.00360533
smoothSolver:  Solving for epsilon, Initial residual = 0.0481589, Final residual = 2.23719e-07, No Iterations 7
smoothSolver:  Solving for k, Initial residual = 0.0510909, Final residual = 4.5208e-07, No Iterations 8
ExecutionTime = 29.4 s  ClockTime = 35 s

Courant Number mean: 0.0927138 max: 0.963148
Interface Courant Number mean: 0.0174038 max: 0.963148
deltaT = 0.005
Time = 0.22

smoothSolver:  Solving for alpha.water, Initial residual = 0.0319806, Final residual = 4.25841e-10, No Iterations 4
Phase-1 volume fraction = 0.029814  Min(alpha.water) = -8.94906e-05  Max(alpha.water) = 1
MULES: Correcting alpha.water
MULES: Correcting alpha.water
Phase-1 volume fraction = 0.029814  Min(alpha.water) = -8.94906e-05  Max(alpha.water) = 1
GAMG:  Solving for p_rgh, Initial residual = 0.0380647, Final residual = 0.000170663, No Iterations 3
time step continuity errors : sum local = 7.50303e-05, global = 1.98986e-06, cumulative = 0.00360732
GAMG:  Solving for p_rgh, Initial residual = 0.00923183, Final residual = 4.61804e-05, No Iterations 3
time step continuity errors : sum local = 2.04217e-05, global = 8.38533e-07, cumulative = 0.00360816
GAMG:  Solving for p_rgh, Initial residual = 0.00160347, Final residual = 1.39812e-05, No Iterations 50
time step continuity errors : sum local = 6.19083e-06, global = -2.07098e-06, cumulative = 0.00360609
smoothSolver:  Solving for epsilon, Initial residual = 0.0457757, Final residual = 9.37432e-07, No Iterations 6
smoothSolver:  Solving for k, Initial residual = 0.0491297, Final residual = 3.89714e-07, No Iterations 8
ExecutionTime = 29.91 s  ClockTime = 35 s

Courant Number mean: 0.0929428 max: 0.942532
Interface Courant Number mean: 0.0177935 max: 0.942532
deltaT = 0.005
Time = 0.225

smoothSolver:  Solving for alpha.water, Initial residual = 0.0325717, Final residual = 4.00664e-10, No Iterations 4
Phase-1 volume fraction = 0.0304953  Min(alpha.water) = -5.42182e-05  Max(alpha.water) = 1
MULES: Correcting alpha.water
MULES: Correcting alpha.water
Phase-1 volume fraction = 0.0304953  Min(alpha.water) = -5.42182e-05  Max(alpha.water) = 1
GAMG:  Solving for p_rgh, Initial residual = 0.0590771, Final residual = 0.000241019, No Iterations 3
time step continuity errors : sum local = 7.4729e-05, global = -2.84598e-06, cumulative = 0.00360324
GAMG:  Solving for p_rgh, Initial residual = 0.0125016, Final residual = 6.64598e-05, No Iterations 3
time step continuity errors : sum local = 2.08795e-05, global = -5.86198e-07, cumulative = 0.00360266
GAMG:  Solving for p_rgh, Initial residual = 0.00237818, Final residual = 1.18812e-06, No Iterations 50
time step continuity errors : sum local = 3.73019e-07, global = 1.87853e-07, cumulative = 0.00360284
smoothSolver:  Solving for epsilon, Initial residual = 0.0434782, Final residual = 9.50367e-07, No Iterations 6
smoothSolver:  Solving for k, Initial residual = 0.0475312, Final residual = 3.79774e-07, No Iterations 8
ExecutionTime = 30.44 s  ClockTime = 36 s

Courant Number mean: 0.0933664 max: 0.95717
Interface Courant Number mean: 0.0183849 max: 0.95717
deltaT = 0.005
Time = 0.23

smoothSolver:  Solving for alpha.water, Initial residual = 0.0300071, Final residual = 3.85706e-10, No Iterations 4
Phase-1 volume fraction = 0.0311766  Min(alpha.water) = -3.20423e-05  Max(alpha.water) = 1
MULES: Correcting alpha.water
MULES: Correcting alpha.water
Phase-1 volume fraction = 0.0311766  Min(alpha.water) = -3.20423e-05  Max(alpha.water) = 1
GAMG:  Solving for p_rgh, Initial residual = 0.0594541, Final residual = 0.000263744, No Iterations 3
time step continuity errors : sum local = 7.80635e-05, global = 7.86012e-07, cumulative = 0.00360363
GAMG:  Solving for p_rgh, Initial residual = 0.0132718, Final residual = 8.22348e-05, No Iterations 3
time step continuity errors : sum local = 2.48847e-05, global = 2.81065e-07, cumulative = 0.00360391
GAMG:  Solving for p_rgh, Initial residual = 0.0027531, Final residual = 1.11012e-05, No Iterations 50
time step continuity errors : sum local = 3.35076e-06, global = 2.66459e-06, cumulative = 0.00360658
smoothSolver:  Solving for epsilon, Initial residual = 0.0417132, Final residual = 7.37067e-07, No Iterations 6
smoothSolver:  Solving for k, Initial residual = 0.0460333, Final residual = 3.05257e-07, No Iterations 8
ExecutionTime = 30.95 s  ClockTime = 36 s

Courant Number mean: 0.0937477 max: 0.977653
Interface Courant Number mean: 0.0183603 max: 0.977653
deltaT = 0.005
Time = 0.235

smoothSolver:  Solving for alpha.water, Initial residual = 0.0308482, Final residual = 3.61177e-10, No Iterations 4
Phase-1 volume fraction = 0.0318579  Min(alpha.water) = -1.89526e-05  Max(alpha.water) = 1
MULES: Correcting alpha.water
MULES: Correcting alpha.water
Phase-1 volume fraction = 0.0318579  Min(alpha.water) = -1.89526e-05  Max(alpha.water) = 1
GAMG:  Solving for p_rgh, Initial residual = 0.0559392, Final residual = 0.000286862, No Iterations 3
time step continuity errors : sum local = 9.06845e-05, global = 2.26256e-06, cumulative = 0.00360884
GAMG:  Solving for p_rgh, Initial residual = 0.0135884, Final residual = 8.51849e-05, No Iterations 3
time step continuity errors : sum local = 2.73976e-05, global = 5.97885e-07, cumulative = 0.00360944
GAMG:  Solving for p_rgh, Initial residual = 0.00277666, Final residual = 1.34472e-05, No Iterations 50
time step continuity errors : sum local = 4.32033e-06, global = 2.94324e-06, cumulative = 0.00361238
smoothSolver:  Solving for epsilon, Initial residual = 0.0399082, Final residual = 7.08443e-07, No Iterations 6
smoothSolver:  Solving for k, Initial residual = 0.0446276, Final residual = 2.90185e-07, No Iterations 8
ExecutionTime = 31.44 s  ClockTime = 37 s

Courant Number mean: 0.0939431 max: 0.982816
Interface Courant Number mean: 0.01849 max: 0.982816
deltaT = 0.005
Time = 0.24

smoothSolver:  Solving for alpha.water, Initial residual = 0.0296731, Final residual = 3.42751e-10, No Iterations 4
Phase-1 volume fraction = 0.0325391  Min(alpha.water) = -2.26762e-06  Max(alpha.water) = 1
MULES: Correcting alpha.water
MULES: Correcting alpha.water
Phase-1 volume fraction = 0.0325391  Min(alpha.water) = -2.26762e-06  Max(alpha.water) = 1
GAMG:  Solving for p_rgh, Initial residual = 0.0464004, Final residual = 0.000223064, No Iterations 3
time step continuity errors : sum local = 8.57502e-05, global = 1.4048e-06, cumulative = 0.00361378
GAMG:  Solving for p_rgh, Initial residual = 0.0121107, Final residual = 6.9532e-05, No Iterations 3
time step continuity errors : sum local = 2.70505e-05, global = 8.10611e-08, cumulative = 0.00361386
GAMG:  Solving for p_rgh, Initial residual = 0.00243428, Final residual = 1.5617e-05, No Iterations 50
time step continuity errors : sum local = 6.08248e-06, global = 4.20528e-06, cumulative = 0.00361807
smoothSolver:  Solving for epsilon, Initial residual = 0.0380115, Final residual = 6.57427e-07, No Iterations 6
smoothSolver:  Solving for k, Initial residual = 0.04326, Final residual = 2.67172e-07, No Iterations 8
ExecutionTime = 31.96 s  ClockTime = 38 s

Courant Number mean: 0.0941786 max: 0.993274
Interface Courant Number mean: 0.0187323 max: 0.993274
deltaT = 0.005
Time = 0.245

smoothSolver:  Solving for alpha.water, Initial residual = 0.0295102, Final residual = 3.1826e-10, No Iterations 4
Phase-1 volume fraction = 0.0332204  Min(alpha.water) = -8.22441e-07  Max(alpha.water) = 1
MULES: Correcting alpha.water
MULES: Correcting alpha.water
Phase-1 volume fraction = 0.0332204  Min(alpha.water) = -2.07639e-06  Max(alpha.water) = 1
GAMG:  Solving for p_rgh, Initial residual = 0.0422148, Final residual = 0.000200363, No Iterations 3
time step continuity errors : sum local = 8.22567e-05, global = 2.47963e-06, cumulative = 0.00362055
GAMG:  Solving for p_rgh, Initial residual = 0.0114229, Final residual = 6.66192e-05, No Iterations 3
time step continuity errors : sum local = 2.75383e-05, global = 6.42357e-07, cumulative = 0.00362119
GAMG:  Solving for p_rgh, Initial residual = 0.00215461, Final residual = 1.16747e-05, No Iterations 50
time step continuity errors : sum local = 4.83447e-06, global = 3.40651e-06, cumulative = 0.0036246
smoothSolver:  Solving for epsilon, Initial residual = 0.0360404, Final residual = 5.53131e-07, No Iterations 6
smoothSolver:  Solving for k, Initial residual = 0.0417081, Final residual = 8.78158e-07, No Iterations 7
ExecutionTime = 32.47 s  ClockTime = 38 s

Courant Number mean: 0.0944766 max: 0.996565
Interface Courant Number mean: 0.0185595 max: 0.996565
deltaT = 0.005
Time = 0.25

smoothSolver:  Solving for alpha.water, Initial residual = 0.0285716, Final residual = 3.00902e-10, No Iterations 4
Phase-1 volume fraction = 0.0339017  Min(alpha.water) = -1.2588e-06  Max(alpha.water) = 1
MULES: Correcting alpha.water
MULES: Correcting alpha.water
Phase-1 volume fraction = 0.0339017  Min(alpha.water) = -3.51695e-06  Max(alpha.water) = 1
GAMG:  Solving for p_rgh, Initial residual = 0.0339443, Final residual = 0.000323054, No Iterations 2
time step continuity errors : sum local = 0.000184433, global = 1.74624e-06, cumulative = 0.00362634
GAMG:  Solving for p_rgh, Initial residual = 0.00839461, Final residual = 4.90068e-05, No Iterations 3
time step continuity errors : sum local = 2.8024e-05, global = 6.52057e-07, cumulative = 0.003627
GAMG:  Solving for p_rgh, Initial residual = 0.00151561, Final residual = 1.00611e-06, No Iterations 50
time step continuity errors : sum local = 5.76901e-07, global = -2.91688e-07, cumulative = 0.00362671
smoothSolver:  Solving for epsilon, Initial residual = 0.0350608, Final residual = 4.84133e-07, No Iterations 6
smoothSolver:  Solving for k, Initial residual = 0.0409452, Final residual = 7.90952e-07, No Iterations 7
ExecutionTime = 32.97 s  ClockTime = 39 s

Courant Number mean: 0.0947467 max: 0.984165
Interface Courant Number mean: 0.0184069 max: 0.984165
deltaT = 0.005
Time = 0.255

smoothSolver:  Solving for alpha.water, Initial residual = 0.0288185, Final residual = 2.76275e-10, No Iterations 4
Phase-1 volume fraction = 0.034583  Min(alpha.water) = -7.56024e-07  Max(alpha.water) = 1
MULES: Correcting alpha.water
MULES: Correcting alpha.water
Phase-1 volume fraction = 0.034583  Min(alpha.water) = -0.00018908  Max(alpha.water) = 1
GAMG:  Solving for p_rgh, Initial residual = 0.0328473, Final residual = 0.000326894, No Iterations 2
time step continuity errors : sum local = 0.000190266, global = -1.77001e-06, cumulative = 0.00362494
GAMG:  Solving for p_rgh, Initial residual = 0.00734798, Final residual = 4.75189e-05, No Iterations 3
time step continuity errors : sum local = 2.78022e-05, global = -1.06556e-06, cumulative = 0.00362387
GAMG:  Solving for p_rgh, Initial residual = 0.00148995, Final residual = 1.55447e-06, No Iterations 50
time step continuity errors : sum local = 9.11566e-07, global = -9.32385e-08, cumulative = 0.00362378
smoothSolver:  Solving for epsilon, Initial residual = 0.0335176, Final residual = 4.38872e-07, No Iterations 6
smoothSolver:  Solving for k, Initial residual = 0.0394594, Final residual = 7.2405e-07, No Iterations 7
ExecutionTime = 33.46 s  ClockTime = 39 s

Courant Number mean: 0.094912 max: 0.958217
Interface Courant Number mean: 0.018312 max: 0.958217
deltaT = 0.005
Time = 0.26

smoothSolver:  Solving for alpha.water, Initial residual = 0.0270542, Final residual = 2.53003e-10, No Iterations 4
Phase-1 volume fraction = 0.0352642  Min(alpha.water) = -0.000116999  Max(alpha.water) = 1
MULES: Correcting alpha.water
MULES: Correcting alpha.water
Phase-1 volume fraction = 0.0352642  Min(alpha.water) = -0.000116999  Max(alpha.water) = 1.00002
GAMG:  Solving for p_rgh, Initial residual = 0.0317228, Final residual = 0.000142503, No Iterations 3
time step continuity errors : sum local = 8.31648e-05, global = 1.26774e-07, cumulative = 0.0036239
GAMG:  Solving for p_rgh, Initial residual = 0.00758498, Final residual = 3.37082e-05, No Iterations 3
time step continuity errors : sum local = 1.98473e-05, global = 2.46111e-07, cumulative = 0.00362415
GAMG:  Solving for p_rgh, Initial residual = 0.00158692, Final residual = 2.47209e-06, No Iterations 50
time step continuity errors : sum local = 1.45703e-06, global = -2.74954e-07, cumulative = 0.00362387
smoothSolver:  Solving for epsilon, Initial residual = 0.0322481, Final residual = 3.41204e-07, No Iterations 6
smoothSolver:  Solving for k, Initial residual = 0.0383058, Final residual = 5.52483e-07, No Iterations 7
ExecutionTime = 33.94 s  ClockTime = 40 s

Courant Number mean: 0.0949943 max: 0.944597
Interface Courant Number mean: 0.0183235 max: 0.944597
deltaT = 0.005
Time = 0.265

smoothSolver:  Solving for alpha.water, Initial residual = 0.0275542, Final residual = 2.48223e-10, No Iterations 4
Phase-1 volume fraction = 0.0359455  Min(alpha.water) = -7.07939e-05  Max(alpha.water) = 1
MULES: Correcting alpha.water
MULES: Correcting alpha.water
Phase-1 volume fraction = 0.0359455  Min(alpha.water) = -7.07939e-05  Max(alpha.water) = 1
GAMG:  Solving for p_rgh, Initial residual = 0.0320391, Final residual = 0.00014277, No Iterations 3
time step continuity errors : sum local = 8.26291e-05, global = 7.05775e-08, cumulative = 0.00362395
GAMG:  Solving for p_rgh, Initial residual = 0.00794609, Final residual = 4.14793e-05, No Iterations 3
time step continuity errors : sum local = 2.42369e-05, global = 2.61739e-07, cumulative = 0.00362421
GAMG:  Solving for p_rgh, Initial residual = 0.0016647, Final residual = 7.02987e-06, No Iterations 50
time step continuity errors : sum local = 4.10838e-06, global = -3.10692e-06, cumulative = 0.0036211
[...]
GAMG:  Solving for p_rgh, Initial residual = 5.86622e-09, Final residual = 3.77225e-09, No Iterations 3
time step continuity errors : sum local = 7.93656e-08, global = 7.73817e-08, cumulative = -0.000123481
smoothSolver:  Solving for epsilon, Initial residual = 6.23926e-05, Final residual = 6.35118e-07, No Iterations 1
smoothSolver:  Solving for k, Initial residual = 0.000124045, Final residual = 3.02559e-08, No Iterations 2
ExecutionTime = 718.81 s  ClockTime = 881 s

Courant Number mean: 0.0380424 max: 0.991839
Interface Courant Number mean: 0.00447379 max: 0.991839
deltaT = 0.00294118
Time = 9.96176

smoothSolver:  Solving for alpha.water, Initial residual = 0.00269263, Final residual = 5.10564e-11, No Iterations 3
Phase-1 volume fraction = 0.918019  Min(alpha.water) = -1.60352e-19  Max(alpha.water) = 1.00002
MULES: Correcting alpha.water
MULES: Correcting alpha.water
Phase-1 volume fraction = 0.918005  Min(alpha.water) = -1.39477e-06  Max(alpha.water) = 1.00002
GAMG:  Solving for p_rgh, Initial residual = 9.40786e-06, Final residual = 2.27461e-08, No Iterations 2
time step continuity errors : sum local = 4.78891e-07, global = 7.0897e-08, cumulative = -0.00012341
GAMG:  Solving for p_rgh, Initial residual = 3.44376e-08, Final residual = 4.12799e-09, No Iterations 1
time step continuity errors : sum local = 8.69097e-08, global = 3.00288e-08, cumulative = -0.00012338
GAMG:  Solving for p_rgh, Initial residual = 4.21376e-09, Final residual = 4.21376e-09, No Iterations 0
time step continuity errors : sum local = 8.87154e-08, global = 2.57274e-08, cumulative = -0.000123355
smoothSolver:  Solving for epsilon, Initial residual = 5.4442e-05, Final residual = 5.06944e-07, No Iterations 1
smoothSolver:  Solving for k, Initial residual = 0.000129057, Final residual = 3.02785e-08, No Iterations 2
ExecutionTime = 719.07 s  ClockTime = 881 s

Courant Number mean: 0.038041 max: 0.991814
Interface Courant Number mean: 0.00447387 max: 0.991814
deltaT = 0.00294118
Time = 9.96471

smoothSolver:  Solving for alpha.water, Initial residual = 0.00269275, Final residual = 5.10455e-11, No Iterations 3
Phase-1 volume fraction = 0.918019  Min(alpha.water) = -1.52389e-19  Max(alpha.water) = 1.00002
MULES: Correcting alpha.water
MULES: Correcting alpha.water
Phase-1 volume fraction = 0.918005  Min(alpha.water) = -1.37554e-06  Max(alpha.water) = 1.00002
GAMG:  Solving for p_rgh, Initial residual = 9.47335e-06, Final residual = 2.35313e-08, No Iterations 2
time step continuity errors : sum local = 4.95929e-07, global = 5.31873e-08, cumulative = -0.000123301
GAMG:  Solving for p_rgh, Initial residual = 3.73076e-08, Final residual = 3.81649e-09, No Iterations 1
time step continuity errors : sum local = 8.04335e-08, global = -3.88507e-08, cumulative = -0.00012334
GAMG:  Solving for p_rgh, Initial residual = 6.12835e-09, Final residual = 4.36628e-09, No Iterations 3
time step continuity errors : sum local = 9.20201e-08, global = 9.17179e-08, cumulative = -0.000123248
smoothSolver:  Solving for epsilon, Initial residual = 4.40378e-05, Final residual = 4.31353e-07, No Iterations 1
smoothSolver:  Solving for k, Initial residual = 0.000117494, Final residual = 2.49012e-08, No Iterations 2
ExecutionTime = 719.35 s  ClockTime = 881 s

Courant Number mean: 0.0380389 max: 0.991792
Interface Courant Number mean: 0.00447376 max: 0.991792
deltaT = 0.00294118
Time = 9.96765

smoothSolver:  Solving for alpha.water, Initial residual = 0.00269274, Final residual = 5.10357e-11, No Iterations 3
Phase-1 volume fraction = 0.918019  Min(alpha.water) = -1.44825e-19  Max(alpha.water) = 1.00002
MULES: Correcting alpha.water
MULES: Correcting alpha.water
Phase-1 volume fraction = 0.918005  Min(alpha.water) = -1.37249e-06  Max(alpha.water) = 1.00002
GAMG:  Solving for p_rgh, Initial residual = 9.45097e-06, Final residual = 2.36076e-08, No Iterations 2
time step continuity errors : sum local = 4.96488e-07, global = 7.58029e-08, cumulative = -0.000123173
GAMG:  Solving for p_rgh, Initial residual = 3.52751e-08, Final residual = 4.51511e-09, No Iterations 1
time step continuity errors : sum local = 9.49566e-08, global = 3.04253e-08, cumulative = -0.000123142
GAMG:  Solving for p_rgh, Initial residual = 4.42584e-09, Final residual = 4.42584e-09, No Iterations 0
time step continuity errors : sum local = 9.30793e-08, global = 2.46411e-08, cumulative = -0.000123118
smoothSolver:  Solving for epsilon, Initial residual = 0.000242957, Final residual = 1.31193e-08, No Iterations 2
smoothSolver:  Solving for k, Initial residual = 0.000224049, Final residual = 5.3206e-08, No Iterations 2
ExecutionTime = 719.61 s  ClockTime = 882 s

Courant Number mean: 0.0380376 max: 0.991763
Interface Courant Number mean: 0.00447383 max: 0.991763
deltaT = 0.00294118
Time = 9.97059

smoothSolver:  Solving for alpha.water, Initial residual = 0.00269285, Final residual = 5.1027e-11, No Iterations 3
Phase-1 volume fraction = 0.918019  Min(alpha.water) = -1.37638e-19  Max(alpha.water) = 1.00002
MULES: Correcting alpha.water
MULES: Correcting alpha.water
Phase-1 volume fraction = 0.918005  Min(alpha.water) = -1.38234e-06  Max(alpha.water) = 1.00002
GAMG:  Solving for p_rgh, Initial residual = 9.46004e-06, Final residual = 2.45366e-08, No Iterations 2
time step continuity errors : sum local = 5.1562e-07, global = 4.45254e-08, cumulative = -0.000123073
GAMG:  Solving for p_rgh, Initial residual = 3.82934e-08, Final residual = 3.8676e-09, No Iterations 1
time step continuity errors : sum local = 8.12752e-08, global = -4.16137e-09, cumulative = -0.000123077
GAMG:  Solving for p_rgh, Initial residual = 4.66661e-09, Final residual = 4.66661e-09, No Iterations 0
time step continuity errors : sum local = 9.80661e-08, global = -9.42005e-09, cumulative = -0.000123087
smoothSolver:  Solving for epsilon, Initial residual = 0.00013088, Final residual = 9.07501e-07, No Iterations 1
smoothSolver:  Solving for k, Initial residual = 0.000177506, Final residual = 4.52571e-08, No Iterations 2
ExecutionTime = 719.87 s  ClockTime = 882 s

Courant Number mean: 0.0380358 max: 0.991735
Interface Courant Number mean: 0.00447375 max: 0.991735
deltaT = 0.00294118
Time = 9.97353

smoothSolver:  Solving for alpha.water, Initial residual = 0.00269287, Final residual = 5.10194e-11, No Iterations 3
Phase-1 volume fraction = 0.918019  Min(alpha.water) = -1.3081e-19  Max(alpha.water) = 1.00002
MULES: Correcting alpha.water
MULES: Correcting alpha.water
Phase-1 volume fraction = 0.918005  Min(alpha.water) = -1.3789e-06  Max(alpha.water) = 1.00002
GAMG:  Solving for p_rgh, Initial residual = 9.28083e-06, Final residual = 2.43173e-08, No Iterations 2
time step continuity errors : sum local = 5.1156e-07, global = 3.6007e-08, cumulative = -0.000123051
GAMG:  Solving for p_rgh, Initial residual = 3.39057e-08, Final residual = 3.64871e-09, No Iterations 5
time step continuity errors : sum local = 7.67575e-08, global = -7.38391e-08, cumulative = -0.000123124
GAMG:  Solving for p_rgh, Initial residual = 6.03579e-09, Final residual = 1.91047e-09, No Iterations 6
time step continuity errors : sum local = 4.01949e-08, global = -3.92865e-08, cumulative = -0.000123164
smoothSolver:  Solving for epsilon, Initial residual = 8.74616e-05, Final residual = 6.49555e-07, No Iterations 1
smoothSolver:  Solving for k, Initial residual = 0.000170182, Final residual = 4.69786e-08, No Iterations 2
ExecutionTime = 720.18 s  ClockTime = 882 s

Courant Number mean: 0.0380342 max: 0.991706
Interface Courant Number mean: 0.00447373 max: 0.991706
deltaT = 0.00294118
Time = 9.97647

smoothSolver:  Solving for alpha.water, Initial residual = 0.00269293, Final residual = 5.10126e-11, No Iterations 3
Phase-1 volume fraction = 0.91802  Min(alpha.water) = -1.24323e-19  Max(alpha.water) = 1.00002
MULES: Correcting alpha.water
MULES: Correcting alpha.water
Phase-1 volume fraction = 0.918005  Min(alpha.water) = -1.38766e-06  Max(alpha.water) = 1.00002
GAMG:  Solving for p_rgh, Initial residual = 9.14622e-06, Final residual = 2.46808e-08, No Iterations 2
time step continuity errors : sum local = 5.19796e-07, global = 4.3977e-08, cumulative = -0.00012312
GAMG:  Solving for p_rgh, Initial residual = 3.66416e-08, Final residual = 3.76552e-09, No Iterations 1
time step continuity errors : sum local = 7.93047e-08, global = -5.54622e-09, cumulative = -0.000123125
GAMG:  Solving for p_rgh, Initial residual = 4.16521e-09, Final residual = 4.16521e-09, No Iterations 0
time step continuity errors : sum local = 8.77228e-08, global = -1.19993e-08, cumulative = -0.000123137
smoothSolver:  Solving for epsilon, Initial residual = 0.000266462, Final residual = 2.35219e-08, No Iterations 2
smoothSolver:  Solving for k, Initial residual = 0.000245836, Final residual = 6.9234e-08, No Iterations 2
ExecutionTime = 720.43 s  ClockTime = 883 s

Courant Number mean: 0.0380332 max: 0.991673
Interface Courant Number mean: 0.00447379 max: 0.991673
deltaT = 0.00294118
Time = 9.97941

smoothSolver:  Solving for alpha.water, Initial residual = 0.00269303, Final residual = 5.10074e-11, No Iterations 3
Phase-1 volume fraction = 0.91802  Min(alpha.water) = -1.18159e-19  Max(alpha.water) = 1.00002
MULES: Correcting alpha.water
MULES: Correcting alpha.water
Phase-1 volume fraction = 0.918006  Min(alpha.water) = -1.38564e-06  Max(alpha.water) = 1.00002
GAMG:  Solving for p_rgh, Initial residual = 9.03194e-06, Final residual = 2.49567e-08, No Iterations 2
time step continuity errors : sum local = 5.25129e-07, global = 4.55371e-08, cumulative = -0.000123092
GAMG:  Solving for p_rgh, Initial residual = 3.88043e-08, Final residual = 4.08855e-09, No Iterations 1
time step continuity errors : sum local = 8.60298e-08, global = -4.77984e-08, cumulative = -0.00012314
GAMG:  Solving for p_rgh, Initial residual = 6.07958e-09, Final residual = 3.16986e-09, No Iterations 3
time step continuity errors : sum local = 6.66996e-08, global = 6.37432e-08, cumulative = -0.000123076
smoothSolver:  Solving for epsilon, Initial residual = 0.000155362, Final residual = 1.49232e-08, No Iterations 2
smoothSolver:  Solving for k, Initial residual = 0.000212421, Final residual = 7.02256e-08, No Iterations 2
ExecutionTime = 720.71 s  ClockTime = 883 s

Courant Number mean: 0.0380316 max: 0.991642
Interface Courant Number mean: 0.00447368 max: 0.991642
deltaT = 0.00294118
Time = 9.98235

smoothSolver:  Solving for alpha.water, Initial residual = 0.00269302, Final residual = 5.10031e-11, No Iterations 3
Phase-1 volume fraction = 0.91802  Min(alpha.water) = -1.12301e-19  Max(alpha.water) = 1.00002
MULES: Correcting alpha.water
MULES: Correcting alpha.water
Phase-1 volume fraction = 0.918006  Min(alpha.water) = -1.39623e-06  Max(alpha.water) = 1.00002
GAMG:  Solving for p_rgh, Initial residual = 8.95839e-06, Final residual = 2.4824e-08, No Iterations 2
time step continuity errors : sum local = 5.23477e-07, global = 7.93628e-08, cumulative = -0.000122996
GAMG:  Solving for p_rgh, Initial residual = 3.48571e-08, Final residual = 9.94809e-10, No Iterations 2
time step continuity errors : sum local = 2.09781e-08, global = 2.0759e-09, cumulative = -0.000122994
GAMG:  Solving for p_rgh, Initial residual = 3.48661e-09, Final residual = 3.48661e-09, No Iterations 0
time step continuity errors : sum local = 7.35242e-08, global = -1.13379e-08, cumulative = -0.000123006
smoothSolver:  Solving for epsilon, Initial residual = 0.000102648, Final residual = 9.77781e-07, No Iterations 1
smoothSolver:  Solving for k, Initial residual = 0.000203663, Final residual = 4.68136e-08, No Iterations 2
ExecutionTime = 720.97 s  ClockTime = 883 s

Courant Number mean: 0.0380305 max: 0.991607
Interface Courant Number mean: 0.00447369 max: 0.991607
deltaT = 0.00294118
Time = 9.98529

smoothSolver:  Solving for alpha.water, Initial residual = 0.00269306, Final residual = 5.10002e-11, No Iterations 3
Phase-1 volume fraction = 0.91802  Min(alpha.water) = -1.06736e-19  Max(alpha.water) = 1.00002
MULES: Correcting alpha.water
MULES: Correcting alpha.water
Phase-1 volume fraction = 0.918006  Min(alpha.water) = -1.39689e-06  Max(alpha.water) = 1.00002
GAMG:  Solving for p_rgh, Initial residual = 8.89485e-06, Final residual = 2.51544e-08, No Iterations 2
time step continuity errors : sum local = 5.29972e-07, global = 2.48044e-08, cumulative = -0.000122981
GAMG:  Solving for p_rgh, Initial residual = 3.87672e-08, Final residual = 2.72948e-09, No Iterations 2
time step continuity errors : sum local = 5.75068e-08, global = -4.81541e-08, cumulative = -0.000123029
GAMG:  Solving for p_rgh, Initial residual = 5.95716e-09, Final residual = 2.66073e-09, No Iterations 1
time step continuity errors : sum local = 5.60579e-08, global = 5.40585e-08, cumulative = -0.000122975
smoothSolver:  Solving for epsilon, Initial residual = 7.68647e-05, Final residual = 7.15626e-07, No Iterations 1
smoothSolver:  Solving for k, Initial residual = 0.00018943, Final residual = 4.51431e-08, No Iterations 2
ExecutionTime = 721.24 s  ClockTime = 884 s

Courant Number mean: 0.0380295 max: 0.991575
Interface Courant Number mean: 0.00447375 max: 0.991575
deltaT = 0.00294118
Time = 9.98824

smoothSolver:  Solving for alpha.water, Initial residual = 0.00269316, Final residual = 5.09985e-11, No Iterations 3
Phase-1 volume fraction = 0.91802  Min(alpha.water) = -1.01448e-19  Max(alpha.water) = 1.00002
MULES: Correcting alpha.water
MULES: Correcting alpha.water
Phase-1 volume fraction = 0.918006  Min(alpha.water) = -1.40563e-06  Max(alpha.water) = 1.00002
GAMG:  Solving for p_rgh, Initial residual = 8.68438e-06, Final residual = 2.56861e-08, No Iterations 2
time step continuity errors : sum local = 5.41179e-07, global = 7.95708e-08, cumulative = -0.000122895
GAMG:  Solving for p_rgh, Initial residual = 3.8721e-08, Final residual = 8.52757e-10, No Iterations 4
time step continuity errors : sum local = 1.79667e-08, global = -1.42166e-08, cumulative = -0.00012291
GAMG:  Solving for p_rgh, Initial residual = 5.04085e-09, Final residual = 6.58662e-10, No Iterations 1
time step continuity errors : sum local = 1.38555e-08, global = 3.17518e-09, cumulative = -0.000122907
smoothSolver:  Solving for epsilon, Initial residual = 5.8108e-05, Final residual = 5.3901e-07, No Iterations 1
smoothSolver:  Solving for k, Initial residual = 0.000165807, Final residual = 3.39678e-08, No Iterations 2
ExecutionTime = 721.52 s  ClockTime = 884 s

Courant Number mean: 0.0380282 max: 0.99154
Interface Courant Number mean: 0.00447364 max: 0.99154
deltaT = 0.00294118
Time = 9.99118

smoothSolver:  Solving for alpha.water, Initial residual = 0.00269313, Final residual = 5.0998e-11, No Iterations 3
Phase-1 volume fraction = 0.91802  Min(alpha.water) = -9.64232e-20  Max(alpha.water) = 1.00002
MULES: Correcting alpha.water
MULES: Correcting alpha.water
Phase-1 volume fraction = 0.918006  Min(alpha.water) = -1.40611e-06  Max(alpha.water) = 1.00002
GAMG:  Solving for p_rgh, Initial residual = 8.34032e-06, Final residual = 2.53741e-08, No Iterations 2
time step continuity errors : sum local = 5.34443e-07, global = 4.50477e-08, cumulative = -0.000122861
GAMG:  Solving for p_rgh, Initial residual = 3.38597e-08, Final residual = 9.9065e-10, No Iterations 2
time step continuity errors : sum local = 2.08656e-08, global = -1.45061e-08, cumulative = -0.000122876
GAMG:  Solving for p_rgh, Initial residual = 3.82644e-09, Final residual = 3.82644e-09, No Iterations 0
time step continuity errors : sum local = 8.05945e-08, global = -2.3315e-08, cumulative = -0.000122899
smoothSolver:  Solving for epsilon, Initial residual = 5.2183e-05, Final residual = 4.79291e-07, No Iterations 1
smoothSolver:  Solving for k, Initial residual = 0.000158755, Final residual = 3.39237e-08, No Iterations 2
ExecutionTime = 721.79 s  ClockTime = 884 s

Courant Number mean: 0.0380272 max: 0.991505
Interface Courant Number mean: 0.00447362 max: 0.991505
deltaT = 0.00294118
Time = 9.99412

smoothSolver:  Solving for alpha.water, Initial residual = 0.00269319, Final residual = 5.09989e-11, No Iterations 3
Phase-1 volume fraction = 0.91802  Min(alpha.water) = -9.16486e-20  Max(alpha.water) = 1.00002
MULES: Correcting alpha.water
MULES: Correcting alpha.water
Phase-1 volume fraction = 0.918006  Min(alpha.water) = -1.41514e-06  Max(alpha.water) = 1.00002
GAMG:  Solving for p_rgh, Initial residual = 8.046e-06, Final residual = 2.47803e-08, No Iterations 2
time step continuity errors : sum local = 5.22055e-07, global = 3.5954e-08, cumulative = -0.000122863
GAMG:  Solving for p_rgh, Initial residual = 3.59801e-08, Final residual = 2.9883e-09, No Iterations 3
time step continuity errors : sum local = 6.29557e-08, global = 5.69406e-08, cumulative = -0.000122806
GAMG:  Solving for p_rgh, Initial residual = 5.76767e-09, Final residual = 9.48225e-10, No Iterations 1
time step continuity errors : sum local = 1.99867e-08, global = -1.44786e-08, cumulative = -0.000122821
smoothSolver:  Solving for epsilon, Initial residual = 4.98706e-05, Final residual = 4.36526e-07, No Iterations 1
smoothSolver:  Solving for k, Initial residual = 0.000146774, Final residual = 3.73099e-08, No Iterations 2
ExecutionTime = 722.06 s  ClockTime = 885 s

Courant Number mean: 0.0380261 max: 0.991472
Interface Courant Number mean: 0.00447361 max: 0.991472
deltaT = 0.00294118
Time = 9.99706

smoothSolver:  Solving for alpha.water, Initial residual = 0.00269323, Final residual = 5.10008e-11, No Iterations 3
Phase-1 volume fraction = 0.91802  Min(alpha.water) = -8.71118e-20  Max(alpha.water) = 1.00002
MULES: Correcting alpha.water
MULES: Correcting alpha.water
Phase-1 volume fraction = 0.918006  Min(alpha.water) = -1.41577e-06  Max(alpha.water) = 1.00002
GAMG:  Solving for p_rgh, Initial residual = 7.7568e-06, Final residual = 2.54405e-08, No Iterations 2
time step continuity errors : sum local = 5.35228e-07, global = 5.38813e-08, cumulative = -0.000122767
GAMG:  Solving for p_rgh, Initial residual = 3.86148e-08, Final residual = 3.39799e-09, No Iterations 3
time step continuity errors : sum local = 7.14885e-08, global = 2.66914e-08, cumulative = -0.00012274
GAMG:  Solving for p_rgh, Initial residual = 7.15522e-09, Final residual = 1.38467e-09, No Iterations 1
time step continuity errors : sum local = 2.91383e-08, global = -1.81412e-08, cumulative = -0.000122758
smoothSolver:  Solving for epsilon, Initial residual = 3.72005e-05, Final residual = 3.61248e-07, No Iterations 1
smoothSolver:  Solving for k, Initial residual = 0.000147888, Final residual = 2.7929e-08, No Iterations 2
ExecutionTime = 722.33 s  ClockTime = 885 s

Courant Number mean: 0.0380254 max: 0.991462
Interface Courant Number mean: 0.00447367 max: 0.991462
deltaT = 0.00294118
Time = 10

smoothSolver:  Solving for alpha.water, Initial residual = 0.00269333, Final residual = 5.10041e-11, No Iterations 3
Phase-1 volume fraction = 0.91802  Min(alpha.water) = -8.28012e-20  Max(alpha.water) = 1.00002
MULES: Correcting alpha.water
MULES: Correcting alpha.water
Phase-1 volume fraction = 0.918006  Min(alpha.water) = -1.4258e-06  Max(alpha.water) = 1.00002
GAMG:  Solving for p_rgh, Initial residual = 7.39792e-06, Final residual = 2.55383e-08, No Iterations 2
time step continuity errors : sum local = 5.38489e-07, global = 6.13522e-08, cumulative = -0.000122697
GAMG:  Solving for p_rgh, Initial residual = 3.77128e-08, Final residual = 1.32901e-09, No Iterations 2
time step continuity errors : sum local = 2.80228e-08, global = -2.50732e-08, cumulative = -0.000122722
GAMG:  Solving for p_rgh, Initial residual = 4.7757e-09, Final residual = 4.7757e-09, No Iterations 0
time step continuity errors : sum local = 1.00698e-07, global = -3.91371e-08, cumulative = -0.000122761
smoothSolver:  Solving for epsilon, Initial residual = 3.68987e-05, Final residual = 3.43634e-07, No Iterations 1
smoothSolver:  Solving for k, Initial residual = 0.000137696, Final residual = 2.6171e-08, No Iterations 2
ExecutionTime = 722.61 s  ClockTime = 885 s

End

