/*---------------------------------------------------------------------------*\
  =========                 |
  \\      /  F ield         | OpenFOAM: The Open Source CFD Toolbox
   \\    /   O peration     | Website:  https://openfoam.org
    \\  /    A nd           | Version:  9
     \\/     M anipulation  |
\*---------------------------------------------------------------------------*/
Build  : 9-b456138dc4bc
Exec   : blockMesh -dict /opt/openfoam9/tutorials/resources/blockMesh/angledDuct
Date   : Dec 05 2021
Time   : 17:37:00
Host   : "pc"
PID    : 12811
I/O    : uncollated
Case   : /home/tw/OpenFOAM/tw-9/run/proyecto00/Curso-CFD-con-OpenFOAM-para-Principiantes-e-Intermedios/06-interFoam/RAS/angledDuct
nProcs : 1
sigFpe : Enabling floating point exception trapping (FOAM_SIGFPE).
fileModificationChecking : Monitoring run-time modified files using timeStampMaster (fileModificationSkew 10)
allowSystemOperations : Allowing user-supplied system call operations

// * * * * * * * * * * * * * * * * * * * * * * * * * * * * * * * * * * * * * //
Create time

Reading "/opt/openfoam9/tutorials/resources/blockMesh/angledDuct"

Creating block mesh from
    "/opt/openfoam9/tutorials/resources/blockMesh/angledDuct"
Using #codeStream at line 32 in file "/opt/openfoam9/tutorials/resources/blockMesh/angledDuct"
Using #codeStream with "/home/tw/OpenFOAM/tw-9/run/proyecto00/Curso-CFD-con-OpenFOAM-para-Principiantes-e-Intermedios/06-interFoam/RAS/angledDuct/dynamicCode/platforms/linux64GccDPInt32Opt/lib/libcodeStream_e4d1a7bc617c19f981e9c7f57e5704d685cd9640.so"
Creating new library in "dynamicCode/_e4d1a7bc617c19f981e9c7f57e5704d685cd9640/platforms/linux64GccDPInt32Opt/lib/libcodeStream_e4d1a7bc617c19f981e9c7f57e5704d685cd9640.so"
"/opt/openfoam9/etc/codeTemplates/dynamicCode/codeStreamTemplate.C" "/home/tw/OpenFOAM/tw-9/run/proyecto00/Curso-CFD-con-OpenFOAM-para-Principiantes-e-Intermedios/06-interFoam/RAS/angledDuct/dynamicCode/_e4d1a7bc617c19f981e9c7f57e5704d685cd9640/codeStreamTemplate.C"
Invoking "wmake -s libso /home/tw/OpenFOAM/tw-9/run/proyecto00/Curso-CFD-con-OpenFOAM-para-Principiantes-e-Intermedios/06-interFoam/RAS/angledDuct/dynamicCode/_e4d1a7bc617c19f981e9c7f57e5704d685cd9640"
wmake libso /home/tw/OpenFOAM/tw-9/run/proyecto00/Curso-CFD-con-OpenFOAM-para-Principiantes-e-Intermedios/06-interFoam/RAS/angledDuct/dynamicCode/_e4d1a7bc617c19f981e9c7f57e5704d685cd9640
    ln: ./lnInclude
    wmkdep: codeStreamTemplate.C
    Ctoo: codeStreamTemplate.C
    ld: /home/tw/OpenFOAM/tw-9/run/proyecto00/Curso-CFD-con-OpenFOAM-para-Principiantes-e-Intermedios/06-interFoam/RAS/angledDuct/dynamicCode/_e4d1a7bc617c19f981e9c7f57e5704d685cd9640/../platforms/linux64GccDPInt32Opt/lib/libcodeStream_e4d1a7bc617c19f981e9c7f57e5704d685cd9640.so
codeStream : dictionary:"/opt/openfoam9/tutorials/resources/blockMesh/angledDuct" master-only-reading:1
Opening cached dictionary:"/home/tw/OpenFOAM/tw-9/run/proyecto00/Curso-CFD-con-OpenFOAM-para-Principiantes-e-Intermedios/06-interFoam/RAS/angledDuct/dynamicCode/platforms/linux64GccDPInt32Opt/lib/libcodeStream_e4d1a7bc617c19f981e9c7f57e5704d685cd9640.so"
codeStream : dictionary:"/opt/openfoam9/tutorials/resources/blockMesh/angledDuct" master-only-reading:1
No non-linear block edges defined
No non-planar block faces defined
Creating topology blocks
Creating topology patches

Creating block mesh topology
--> FOAM Warning : 
    From function Foam::polyMesh::polyMesh(const Foam::IOobject&, Foam::pointField&&, const cellShapeList&, const faceListList&, const wordList&, const Foam::PtrList<Foam::dictionary>&, const Foam::word&, const Foam::word&, bool)
    in file meshes/polyMesh/polyMeshFromShapeMesh.C at line 873
    Found 8 undefined faces in mesh; adding to default patch.

Check topology

	Basic statistics
		Number of internal faces : 2
		Number of boundary faces : 14
		Number of defined boundary faces : 14
		Number of undefined boundary faces : 0
	Checking patch -> block consistency

Creating block offsets
Creating merge list .

Creating polyMesh from blockMesh
Creating patches
Creating cells
Creating points with scale 0.001
    Block 0 cell size :
        i : 0.01 0.00988215 .. 0.00988215 0.01 0.00988215 .. 0.00988215 
        j : 0.00176777 .. 0.00176777 0.00177169 .. 0.00177169 0.00176777 .. 0.00176776 0.00177169 .. 0.00177169 
        k : 0.0025
    Block 1 cell size :
        i : 0.005 .. 0.005
        j : 0.0025 .. 0.0025
        k : 0.0025
    Block 2 cell size :
        i : 0.00499997
        j : 0.0025 .. 0.0025
        k : 0.0025

There are no merge patch pairs edges

Adding cell zones
    0	inlet
    1	porosity
    2	outlet

Writing polyMesh
----------------
Mesh Information
----------------
  boundingBox: (-0.15 0 -0.025) (0.141421 0.176777 0.025)
  nPoints: 24696
  nCells: 22000
  nFaces: 68600
  nInternalFaces: 63400
----------------
Patches
----------------
  patch 0 (start: 63400 size: 1600) name: porosityWall
  patch 1 (start: 65000 size: 400) name: inlet
  patch 2 (start: 65400 size: 400) name: outlet
  patch 3 (start: 65800 size: 2800) name: walls

End

