/*---------------------------------------------------------------------------*\
  =========                 |
  \\      /  F ield         | OpenFOAM: The Open Source CFD Toolbox
   \\    /   O peration     | Website:  https://openfoam.org
    \\  /    A nd           | Version:  9
     \\/     M anipulation  |
\*---------------------------------------------------------------------------*/
Build  : 9-a0f1846504f2
Exec   : simpleFoam
Date   : Nov 14 2021
Time   : 18:16:57
Host   : "tw-Satellite-C45t-A"
PID    : 20605
I/O    : uncollated
Case   : /home/tw/OpenFOAM/tw-9/run/proyecto00/Curso-CFD-con-OpenFOAM-para-Principiantes-e-Intermedios/05-airFoil2D
nProcs : 1
sigFpe : Enabling floating point exception trapping (FOAM_SIGFPE).
fileModificationChecking : Monitoring run-time modified files using timeStampMaster (fileModificationSkew 10)
allowSystemOperations : Allowing user-supplied system call operations

// * * * * * * * * * * * * * * * * * * * * * * * * * * * * * * * * * * * * * //
Create time

Create mesh for time = 0


SIMPLE: Convergence criteria found
        p: tolerance 1e-05
        U: tolerance 1e-05
        nuTilda: tolerance 1e-05

Reading field p

Reading field U

Reading/calculating face flux field phi

Selecting incompressible transport model Newtonian
Selecting turbulence model type RAS
Selecting RAS turbulence model SpalartAllmaras
Selecting patchDistMethod meshWave
RAS
{
    model           SpalartAllmaras;
    turbulence      on;
    printCoeffs     on;
    sigmaNut        0.66666;
    kappa           0.41;
    Cb1             0.1355;
    Cb2             0.622;
    Cw2             0.3;
    Cw3             2;
    Cv1             7.1;
    Cs              0.3;
}

No MRF models present

No fvModels present
No fvConstraints present

Starting time loop

Time = 1

smoothSolver:  Solving for Ux, Initial residual = 1, Final residual = 0.0792198, No Iterations 2
smoothSolver:  Solving for Uy, Initial residual = 1, Final residual = 0.0788096, No Iterations 2
GAMG:  Solving for p, Initial residual = 1, Final residual = 0.0597813, No Iterations 5
time step continuity errors : sum local = 0.00442118, global = 0.0016215, cumulative = 0.0016215
smoothSolver:  Solving for nuTilda, Initial residual = 1, Final residual = 0.090224, No Iterations 4
ExecutionTime = 0.18 s  ClockTime = 1 s

Time = 2

smoothSolver:  Solving for Ux, Initial residual = 0.372151, Final residual = 0.0309095, No Iterations 4
smoothSolver:  Solving for Uy, Initial residual = 0.38934, Final residual = 0.0233486, No Iterations 4
GAMG:  Solving for p, Initial residual = 0.698179, Final residual = 0.0611229, No Iterations 3
time step continuity errors : sum local = 0.0117981, global = 0.000141697, cumulative = 0.0017632
smoothSolver:  Solving for nuTilda, Initial residual = 0.170916, Final residual = 0.0129916, No Iterations 4
ExecutionTime = 0.23 s  ClockTime = 1 s

Time = 3

smoothSolver:  Solving for Ux, Initial residual = 0.182515, Final residual = 0.0160382, No Iterations 4
smoothSolver:  Solving for Uy, Initial residual = 0.113963, Final residual = 0.00785038, No Iterations 4
GAMG:  Solving for p, Initial residual = 0.693313, Final residual = 0.0386577, No Iterations 5
time step continuity errors : sum local = 0.00667749, global = 0.00174612, cumulative = 0.00350932
smoothSolver:  Solving for nuTilda, Initial residual = 0.0783175, Final residual = 0.00405956, No Iterations 4
ExecutionTime = 0.28 s  ClockTime = 1 s

Time = 4

smoothSolver:  Solving for Ux, Initial residual = 0.0573001, Final residual = 0.00502669, No Iterations 4
smoothSolver:  Solving for Uy, Initial residual = 0.0444661, Final residual = 0.00335388, No Iterations 4
GAMG:  Solving for p, Initial residual = 0.683294, Final residual = 0.0545119, No Iterations 4
time step continuity errors : sum local = 0.00671476, global = 0.000661301, cumulative = 0.00417062
smoothSolver:  Solving for nuTilda, Initial residual = 0.0569387, Final residual = 0.00229064, No Iterations 4
ExecutionTime = 0.32 s  ClockTime = 1 s

Time = 5

smoothSolver:  Solving for Ux, Initial residual = 0.104106, Final residual = 0.00739405, No Iterations 4
smoothSolver:  Solving for Uy, Initial residual = 0.134388, Final residual = 0.00949321, No Iterations 4
GAMG:  Solving for p, Initial residual = 0.613607, Final residual = 0.0347254, No Iterations 4
time step continuity errors : sum local = 0.00516668, global = 0.000137824, cumulative = 0.00430844
smoothSolver:  Solving for nuTilda, Initial residual = 0.0314121, Final residual = 0.00159359, No Iterations 4
ExecutionTime = 0.37 s  ClockTime = 1 s

Time = 6

smoothSolver:  Solving for Ux, Initial residual = 0.10843, Final residual = 0.00889668, No Iterations 4
smoothSolver:  Solving for Uy, Initial residual = 0.325306, Final residual = 0.027664, No Iterations 4
GAMG:  Solving for p, Initial residual = 0.646435, Final residual = 0.0317549, No Iterations 5
time step continuity errors : sum local = 0.00469158, global = -0.00132692, cumulative = 0.00298153
smoothSolver:  Solving for nuTilda, Initial residual = 0.0260474, Final residual = 0.00130513, No Iterations 4
ExecutionTime = 0.41 s  ClockTime = 1 s

Time = 7

smoothSolver:  Solving for Ux, Initial residual = 0.0587601, Final residual = 0.00451752, No Iterations 4
smoothSolver:  Solving for Uy, Initial residual = 0.258248, Final residual = 0.0209653, No Iterations 4
GAMG:  Solving for p, Initial residual = 0.76035, Final residual = 0.0670338, No Iterations 4
time step continuity errors : sum local = 0.00664701, global = 0.00146007, cumulative = 0.0044416
smoothSolver:  Solving for nuTilda, Initial residual = 0.0229683, Final residual = 0.00124883, No Iterations 4
ExecutionTime = 0.47 s  ClockTime = 1 s

Time = 8

smoothSolver:  Solving for Ux, Initial residual = 0.0737382, Final residual = 0.00564873, No Iterations 4
smoothSolver:  Solving for Uy, Initial residual = 0.184574, Final residual = 0.0119904, No Iterations 4
GAMG:  Solving for p, Initial residual = 0.628527, Final residual = 0.0366001, No Iterations 4
time step continuity errors : sum local = 0.004092, global = -1.94011e-05, cumulative = 0.0044222
smoothSolver:  Solving for nuTilda, Initial residual = 0.0213324, Final residual = 0.00116887, No Iterations 4
ExecutionTime = 0.51 s  ClockTime = 1 s

Time = 9

smoothSolver:  Solving for Ux, Initial residual = 0.0651472, Final residual = 0.00562026, No Iterations 4
smoothSolver:  Solving for Uy, Initial residual = 0.0850499, Final residual = 0.00632298, No Iterations 4
GAMG:  Solving for p, Initial residual = 0.68932, Final residual = 0.0666466, No Iterations 4
time step continuity errors : sum local = 0.00695525, global = -0.000213183, cumulative = 0.00420901
smoothSolver:  Solving for nuTilda, Initial residual = 0.0201149, Final residual = 0.00113659, No Iterations 4
ExecutionTime = 0.55 s  ClockTime = 1 s

Time = 10

smoothSolver:  Solving for Ux, Initial residual = 0.0391857, Final residual = 0.00359942, No Iterations 4
smoothSolver:  Solving for Uy, Initial residual = 0.0460542, Final residual = 0.0033534, No Iterations 4
GAMG:  Solving for p, Initial residual = 0.713085, Final residual = 0.0671453, No Iterations 4
time step continuity errors : sum local = 0.00546755, global = 0.000101548, cumulative = 0.00431056
smoothSolver:  Solving for nuTilda, Initial residual = 0.0207327, Final residual = 0.00112584, No Iterations 4
ExecutionTime = 0.6 s  ClockTime = 1 s

Time = 11

smoothSolver:  Solving for Ux, Initial residual = 0.0282314, Final residual = 0.00186701, No Iterations 4
smoothSolver:  Solving for Uy, Initial residual = 0.0499114, Final residual = 0.00363984, No Iterations 4
GAMG:  Solving for p, Initial residual = 0.508706, Final residual = 0.033959, No Iterations 4
time step continuity errors : sum local = 0.00327148, global = 0.000100233, cumulative = 0.00441079
smoothSolver:  Solving for nuTilda, Initial residual = 0.0182921, Final residual = 0.00103811, No Iterations 4
ExecutionTime = 0.65 s  ClockTime = 1 s

Time = 12

smoothSolver:  Solving for Ux, Initial residual = 0.0327109, Final residual = 0.00260313, No Iterations 4
smoothSolver:  Solving for Uy, Initial residual = 0.0697542, Final residual = 0.00543543, No Iterations 4
GAMG:  Solving for p, Initial residual = 0.497457, Final residual = 0.0437661, No Iterations 4
time step continuity errors : sum local = 0.00423063, global = 0.000180175, cumulative = 0.00459097
smoothSolver:  Solving for nuTilda, Initial residual = 0.0170706, Final residual = 0.000982914, No Iterations 4
ExecutionTime = 0.69 s  ClockTime = 1 s

Time = 13

smoothSolver:  Solving for Ux, Initial residual = 0.031089, Final residual = 0.00267919, No Iterations 4
smoothSolver:  Solving for Uy, Initial residual = 0.0698681, Final residual = 0.00534322, No Iterations 4
GAMG:  Solving for p, Initial residual = 0.559001, Final residual = 0.0259226, No Iterations 5
time step continuity errors : sum local = 0.00210816, global = -0.000454463, cumulative = 0.00413651
smoothSolver:  Solving for nuTilda, Initial residual = 0.0170037, Final residual = 0.000942007, No Iterations 4
ExecutionTime = 0.74 s  ClockTime = 1 s

Time = 14

smoothSolver:  Solving for Ux, Initial residual = 0.0252493, Final residual = 0.00181848, No Iterations 4
smoothSolver:  Solving for Uy, Initial residual = 0.0487119, Final residual = 0.00323308, No Iterations 4
GAMG:  Solving for p, Initial residual = 0.688477, Final residual = 0.0453192, No Iterations 4
time step continuity errors : sum local = 0.00278559, global = -4.9368e-05, cumulative = 0.00408714
smoothSolver:  Solving for nuTilda, Initial residual = 0.0167062, Final residual = 0.000947902, No Iterations 4
ExecutionTime = 0.79 s  ClockTime = 1 s

Time = 15

smoothSolver:  Solving for Ux, Initial residual = 0.0274815, Final residual = 0.00213925, No Iterations 4
smoothSolver:  Solving for Uy, Initial residual = 0.0430818, Final residual = 0.00287398, No Iterations 4
GAMG:  Solving for p, Initial residual = 0.711456, Final residual = 0.0431355, No Iterations 4
time step continuity errors : sum local = 0.00220992, global = -4.44471e-05, cumulative = 0.00404269
smoothSolver:  Solving for nuTilda, Initial residual = 0.0162766, Final residual = 0.000936612, No Iterations 4
ExecutionTime = 0.83 s  ClockTime = 1 s

Time = 16

smoothSolver:  Solving for Ux, Initial residual = 0.0247137, Final residual = 0.0021557, No Iterations 4
smoothSolver:  Solving for Uy, Initial residual = 0.0345259, Final residual = 0.00229153, No Iterations 4
GAMG:  Solving for p, Initial residual = 0.589166, Final residual = 0.0311186, No Iterations 5
time step continuity errors : sum local = 0.00153273, global = 0.000318701, cumulative = 0.00436139
smoothSolver:  Solving for nuTilda, Initial residual = 0.0158169, Final residual = 0.000906851, No Iterations 4
ExecutionTime = 0.88 s  ClockTime = 1 s

Time = 17

smoothSolver:  Solving for Ux, Initial residual = 0.0163529, Final residual = 0.00146352, No Iterations 4
smoothSolver:  Solving for Uy, Initial residual = 0.0242948, Final residual = 0.00150545, No Iterations 4
GAMG:  Solving for p, Initial residual = 0.465356, Final residual = 0.0386512, No Iterations 4
time step continuity errors : sum local = 0.00227657, global = -7.07999e-05, cumulative = 0.00429059
smoothSolver:  Solving for nuTilda, Initial residual = 0.0155709, Final residual = 0.000872633, No Iterations 4
ExecutionTime = 0.92 s  ClockTime = 1 s

Time = 18

smoothSolver:  Solving for Ux, Initial residual = 0.0143127, Final residual = 0.00113052, No Iterations 4
smoothSolver:  Solving for Uy, Initial residual = 0.0263776, Final residual = 0.00178244, No Iterations 4
GAMG:  Solving for p, Initial residual = 0.391625, Final residual = 0.0228044, No Iterations 4
time step continuity errors : sum local = 0.0015157, global = 2.63538e-06, cumulative = 0.00429323
smoothSolver:  Solving for nuTilda, Initial residual = 0.0154904, Final residual = 0.000848361, No Iterations 4
ExecutionTime = 0.98 s  ClockTime = 1 s

Time = 19

smoothSolver:  Solving for Ux, Initial residual = 0.016173, Final residual = 0.00138172, No Iterations 4
smoothSolver:  Solving for Uy, Initial residual = 0.0275958, Final residual = 0.00191365, No Iterations 4
GAMG:  Solving for p, Initial residual = 0.367593, Final residual = 0.0315446, No Iterations 4
time step continuity errors : sum local = 0.00194968, global = 3.44139e-05, cumulative = 0.00432764
smoothSolver:  Solving for nuTilda, Initial residual = 0.0155753, Final residual = 0.000828755, No Iterations 4
ExecutionTime = 1.02 s  ClockTime = 2 s

Time = 20

smoothSolver:  Solving for Ux, Initial residual = 0.0155149, Final residual = 0.00127654, No Iterations 4
smoothSolver:  Solving for Uy, Initial residual = 0.0232213, Final residual = 0.00160771, No Iterations 4
GAMG:  Solving for p, Initial residual = 0.402791, Final residual = 0.0354817, No Iterations 4
time step continuity errors : sum local = 0.00190644, global = -8.91129e-05, cumulative = 0.00423853
smoothSolver:  Solving for nuTilda, Initial residual = 0.0157078, Final residual = 0.000804303, No Iterations 4
ExecutionTime = 1.07 s  ClockTime = 2 s

Time = 21

smoothSolver:  Solving for Ux, Initial residual = 0.01478, Final residual = 0.00108553, No Iterations 4
smoothSolver:  Solving for Uy, Initial residual = 0.0200988, Final residual = 0.00122818, No Iterations 4
GAMG:  Solving for p, Initial residual = 0.446658, Final residual = 0.0301342, No Iterations 4
time step continuity errors : sum local = 0.0013858, global = -0.000102107, cumulative = 0.00413642
smoothSolver:  Solving for nuTilda, Initial residual = 0.0158195, Final residual = 0.000785354, No Iterations 4
ExecutionTime = 1.11 s  ClockTime = 2 s

Time = 22

smoothSolver:  Solving for Ux, Initial residual = 0.0150207, Final residual = 0.00119959, No Iterations 4
smoothSolver:  Solving for Uy, Initial residual = 0.019849, Final residual = 0.00122494, No Iterations 4
GAMG:  Solving for p, Initial residual = 0.422195, Final residual = 0.0273943, No Iterations 4
time step continuity errors : sum local = 0.00112984, global = -0.000102099, cumulative = 0.00403432
smoothSolver:  Solving for nuTilda, Initial residual = 0.0160717, Final residual = 0.000778411, No Iterations 4
ExecutionTime = 1.16 s  ClockTime = 2 s

Time = 23

smoothSolver:  Solving for Ux, Initial residual = 0.0132574, Final residual = 0.00110816, No Iterations 4
smoothSolver:  Solving for Uy, Initial residual = 0.0171608, Final residual = 0.00104547, No Iterations 4
GAMG:  Solving for p, Initial residual = 0.388827, Final residual = 0.0355602, No Iterations 4
time step continuity errors : sum local = 0.00149148, global = -0.000342842, cumulative = 0.00369148
smoothSolver:  Solving for nuTilda, Initial residual = 0.0164739, Final residual = 0.000781974, No Iterations 4
ExecutionTime = 1.21 s  ClockTime = 2 s

Time = 24

smoothSolver:  Solving for Ux, Initial residual = 0.0108528, Final residual = 0.000864593, No Iterations 4
smoothSolver:  Solving for Uy, Initial residual = 0.0148781, Final residual = 0.000823899, No Iterations 4
GAMG:  Solving for p, Initial residual = 0.331231, Final residual = 0.0298376, No Iterations 4
time step continuity errors : sum local = 0.00138965, global = -0.00021765, cumulative = 0.00347383
smoothSolver:  Solving for nuTilda, Initial residual = 0.0169808, Final residual = 0.000791756, No Iterations 4
ExecutionTime = 1.26 s  ClockTime = 2 s

Time = 25

smoothSolver:  Solving for Ux, Initial residual = 0.0108111, Final residual = 0.000839379, No Iterations 4
smoothSolver:  Solving for Uy, Initial residual = 0.0156214, Final residual = 0.000911002, No Iterations 4
GAMG:  Solving for p, Initial residual = 0.282449, Final residual = 0.0238205, No Iterations 3
time step continuity errors : sum local = 0.00116207, global = 3.05266e-05, cumulative = 0.00350436
smoothSolver:  Solving for nuTilda, Initial residual = 0.0175508, Final residual = 0.000803624, No Iterations 4
ExecutionTime = 1.3 s  ClockTime = 2 s

Time = 26

smoothSolver:  Solving for Ux, Initial residual = 0.0114806, Final residual = 0.000899499, No Iterations 4
smoothSolver:  Solving for Uy, Initial residual = 0.0153438, Final residual = 0.000909221, No Iterations 4
GAMG:  Solving for p, Initial residual = 0.28048, Final residual = 0.0190761, No Iterations 4
time step continuity errors : sum local = 0.000882952, global = -0.000125029, cumulative = 0.00337933
smoothSolver:  Solving for nuTilda, Initial residual = 0.0181899, Final residual = 0.000818345, No Iterations 4
ExecutionTime = 1.34 s  ClockTime = 2 s

Time = 27

smoothSolver:  Solving for Ux, Initial residual = 0.0113915, Final residual = 0.000823991, No Iterations 4
smoothSolver:  Solving for Uy, Initial residual = 0.0134367, Final residual = 0.000778693, No Iterations 4
GAMG:  Solving for p, Initial residual = 0.293185, Final residual = 0.0211253, No Iterations 4
time step continuity errors : sum local = 0.000889646, global = -0.000205767, cumulative = 0.00317356
smoothSolver:  Solving for nuTilda, Initial residual = 0.0188071, Final residual = 0.000828274, No Iterations 4
ExecutionTime = 1.38 s  ClockTime = 2 s

Time = 28

smoothSolver:  Solving for Ux, Initial residual = 0.0110802, Final residual = 0.000752939, No Iterations 4
smoothSolver:  Solving for Uy, Initial residual = 0.0131964, Final residual = 0.000765651, No Iterations 4
GAMG:  Solving for p, Initial residual = 0.304972, Final residual = 0.0302245, No Iterations 3
time step continuity errors : sum local = 0.00113484, global = 2.94721e-05, cumulative = 0.00320303
smoothSolver:  Solving for nuTilda, Initial residual = 0.0195333, Final residual = 0.000842792, No Iterations 4
ExecutionTime = 1.43 s  ClockTime = 2 s

Time = 29

smoothSolver:  Solving for Ux, Initial residual = 0.0106786, Final residual = 0.000730399, No Iterations 4
smoothSolver:  Solving for Uy, Initial residual = 0.0132834, Final residual = 0.000782849, No Iterations 4
GAMG:  Solving for p, Initial residual = 0.305201, Final residual = 0.0276248, No Iterations 4
time step continuity errors : sum local = 0.000966621, global = -9.09002e-05, cumulative = 0.00311213
smoothSolver:  Solving for nuTilda, Initial residual = 0.0203413, Final residual = 0.000858821, No Iterations 4
ExecutionTime = 1.47 s  ClockTime = 2 s

Time = 30

smoothSolver:  Solving for Ux, Initial residual = 0.0101958, Final residual = 0.000670159, No Iterations 4
smoothSolver:  Solving for Uy, Initial residual = 0.0134034, Final residual = 0.000734556, No Iterations 4
GAMG:  Solving for p, Initial residual = 0.301458, Final residual = 0.022644, No Iterations 4
time step continuity errors : sum local = 0.000770396, global = -6.90432e-05, cumulative = 0.00304309
smoothSolver:  Solving for nuTilda, Initial residual = 0.0212952, Final residual = 0.000882257, No Iterations 4
ExecutionTime = 1.52 s  ClockTime = 2 s

Time = 31

smoothSolver:  Solving for Ux, Initial residual = 0.0101775, Final residual = 0.000656157, No Iterations 4
smoothSolver:  Solving for Uy, Initial residual = 0.0133482, Final residual = 0.000698425, No Iterations 4
GAMG:  Solving for p, Initial residual = 0.280242, Final residual = 0.0272291, No Iterations 3
time step continuity errors : sum local = 0.000965537, global = 3.30865e-05, cumulative = 0.00307618
smoothSolver:  Solving for nuTilda, Initial residual = 0.0221992, Final residual = 0.000895741, No Iterations 4
ExecutionTime = 1.56 s  ClockTime = 2 s

Time = 32

smoothSolver:  Solving for Ux, Initial residual = 0.0104736, Final residual = 0.000669709, No Iterations 4
smoothSolver:  Solving for Uy, Initial residual = 0.0132373, Final residual = 0.000658307, No Iterations 4
GAMG:  Solving for p, Initial residual = 0.263238, Final residual = 0.0174977, No Iterations 4
time step continuity errors : sum local = 0.00063069, global = -3.05936e-05, cumulative = 0.00304558
smoothSolver:  Solving for nuTilda, Initial residual = 0.0230711, Final residual = 0.000897652, No Iterations 4
ExecutionTime = 1.61 s  ClockTime = 2 s

Time = 33

smoothSolver:  Solving for Ux, Initial residual = 0.010617, Final residual = 0.000658984, No Iterations 4
smoothSolver:  Solving for Uy, Initial residual = 0.0130955, Final residual = 0.000645101, No Iterations 4
GAMG:  Solving for p, Initial residual = 0.24834, Final residual = 0.021758, No Iterations 3
time step continuity errors : sum local = 0.000801307, global = 2.19741e-05, cumulative = 0.00306756
smoothSolver:  Solving for nuTilda, Initial residual = 0.0241572, Final residual = 0.00091233, No Iterations 4
ExecutionTime = 1.65 s  ClockTime = 2 s

Time = 34

smoothSolver:  Solving for Ux, Initial residual = 0.0104542, Final residual = 0.000613039, No Iterations 4
smoothSolver:  Solving for Uy, Initial residual = 0.0132017, Final residual = 0.000649833, No Iterations 4
GAMG:  Solving for p, Initial residual = 0.244686, Final residual = 0.0204802, No Iterations 3
time step continuity errors : sum local = 0.000743468, global = 1.32527e-05, cumulative = 0.00308081
smoothSolver:  Solving for nuTilda, Initial residual = 0.0253364, Final residual = 0.000930222, No Iterations 4
ExecutionTime = 1.69 s  ClockTime = 2 s

Time = 35

smoothSolver:  Solving for Ux, Initial residual = 0.0101678, Final residual = 0.000564186, No Iterations 4
smoothSolver:  Solving for Uy, Initial residual = 0.0133971, Final residual = 0.000649424, No Iterations 4
GAMG:  Solving for p, Initial residual = 0.250076, Final residual = 0.020239, No Iterations 3
time step continuity errors : sum local = 0.000707679, global = 8.07573e-06, cumulative = 0.00308889
smoothSolver:  Solving for nuTilda, Initial residual = 0.0265604, Final residual = 0.000947846, No Iterations 4
ExecutionTime = 1.74 s  ClockTime = 2 s

Time = 36

smoothSolver:  Solving for Ux, Initial residual = 0.0101776, Final residual = 0.000541391, No Iterations 4
smoothSolver:  Solving for Uy, Initial residual = 0.0139631, Final residual = 0.000658594, No Iterations 4
GAMG:  Solving for p, Initial residual = 0.257818, Final residual = 0.0229894, No Iterations 3
time step continuity errors : sum local = 0.000762742, global = 1.04584e-05, cumulative = 0.00309935
smoothSolver:  Solving for nuTilda, Initial residual = 0.0279774, Final residual = 0.000972992, No Iterations 4
ExecutionTime = 1.78 s  ClockTime = 3 s

Time = 37

smoothSolver:  Solving for Ux, Initial residual = 0.0104652, Final residual = 0.00053808, No Iterations 4
smoothSolver:  Solving for Uy, Initial residual = 0.0145565, Final residual = 0.000677263, No Iterations 4
GAMG:  Solving for p, Initial residual = 0.263363, Final residual = 0.0193901, No Iterations 4
time step continuity errors : sum local = 0.000618782, global = -1.88118e-05, cumulative = 0.00308053
smoothSolver:  Solving for nuTilda, Initial residual = 0.029577, Final residual = 0.00100538, No Iterations 4
ExecutionTime = 1.82 s  ClockTime = 3 s

Time = 38

smoothSolver:  Solving for Ux, Initial residual = 0.0108556, Final residual = 0.000546058, No Iterations 4
smoothSolver:  Solving for Uy, Initial residual = 0.0150083, Final residual = 0.000696386, No Iterations 4
GAMG:  Solving for p, Initial residual = 0.254944, Final residual = 0.0209678, No Iterations 3
time step continuity errors : sum local = 0.000668161, global = 2.11223e-05, cumulative = 0.00310166
smoothSolver:  Solving for nuTilda, Initial residual = 0.0311719, Final residual = 0.00102432, No Iterations 4
ExecutionTime = 1.86 s  ClockTime = 3 s

Time = 39

smoothSolver:  Solving for Ux, Initial residual = 0.0110127, Final residual = 0.000543187, No Iterations 4
smoothSolver:  Solving for Uy, Initial residual = 0.0150428, Final residual = 0.000662735, No Iterations 4
GAMG:  Solving for p, Initial residual = 0.246375, Final residual = 0.018941, No Iterations 3
time step continuity errors : sum local = 0.000618729, global = 2.26083e-05, cumulative = 0.00312426
smoothSolver:  Solving for nuTilda, Initial residual = 0.0325803, Final residual = 0.00103125, No Iterations 4
ExecutionTime = 1.91 s  ClockTime = 3 s

Time = 40

smoothSolver:  Solving for Ux, Initial residual = 0.0110489, Final residual = 0.000535777, No Iterations 4
smoothSolver:  Solving for Uy, Initial residual = 0.0150418, Final residual = 0.000636307, No Iterations 4
GAMG:  Solving for p, Initial residual = 0.234863, Final residual = 0.0175473, No Iterations 3
time step continuity errors : sum local = 0.00058988, global = 2.18013e-05, cumulative = 0.00314607
smoothSolver:  Solving for nuTilda, Initial residual = 0.0340118, Final residual = 0.0010326, No Iterations 4
ExecutionTime = 1.95 s  ClockTime = 3 s

Time = 41

smoothSolver:  Solving for Ux, Initial residual = 0.0111087, Final residual = 0.000530227, No Iterations 4
smoothSolver:  Solving for Uy, Initial residual = 0.0151375, Final residual = 0.000629534, No Iterations 4
GAMG:  Solving for p, Initial residual = 0.225719, Final residual = 0.0157842, No Iterations 3
time step continuity errors : sum local = 0.000538828, global = 1.64632e-05, cumulative = 0.00316253
smoothSolver:  Solving for nuTilda, Initial residual = 0.0354174, Final residual = 0.00102913, No Iterations 4
ExecutionTime = 1.99 s  ClockTime = 3 s

Time = 42

smoothSolver:  Solving for Ux, Initial residual = 0.0112639, Final residual = 0.000528473, No Iterations 4
smoothSolver:  Solving for Uy, Initial residual = 0.0153755, Final residual = 0.00062549, No Iterations 4
GAMG:  Solving for p, Initial residual = 0.226352, Final residual = 0.0155303, No Iterations 3
time step continuity errors : sum local = 0.000526189, global = 7.77187e-06, cumulative = 0.0031703
smoothSolver:  Solving for nuTilda, Initial residual = 0.0366002, Final residual = 0.00100964, No Iterations 4
ExecutionTime = 2.04 s  ClockTime = 3 s

Time = 43

smoothSolver:  Solving for Ux, Initial residual = 0.0114958, Final residual = 0.000530197, No Iterations 4
smoothSolver:  Solving for Uy, Initial residual = 0.0155259, Final residual = 0.00061608, No Iterations 4
GAMG:  Solving for p, Initial residual = 0.235822, Final residual = 0.0161103, No Iterations 3
time step continuity errors : sum local = 0.000530279, global = 7.68956e-06, cumulative = 0.00317799
smoothSolver:  Solving for nuTilda, Initial residual = 0.0375509, Final residual = 0.000982095, No Iterations 4
ExecutionTime = 2.08 s  ClockTime = 3 s

Time = 44

smoothSolver:  Solving for Ux, Initial residual = 0.0117489, Final residual = 0.000533565, No Iterations 4
smoothSolver:  Solving for Uy, Initial residual = 0.0156026, Final residual = 0.000604469, No Iterations 4
GAMG:  Solving for p, Initial residual = 0.239448, Final residual = 0.0159109, No Iterations 3
time step continuity errors : sum local = 0.000504552, global = 8.6473e-06, cumulative = 0.00318664
smoothSolver:  Solving for nuTilda, Initial residual = 0.0385266, Final residual = 0.000960824, No Iterations 4
ExecutionTime = 2.13 s  ClockTime = 3 s

Time = 45

smoothSolver:  Solving for Ux, Initial residual = 0.0119684, Final residual = 0.000540274, No Iterations 4
smoothSolver:  Solving for Uy, Initial residual = 0.0156234, Final residual = 0.000594132, No Iterations 4
GAMG:  Solving for p, Initial residual = 0.241914, Final residual = 0.0159292, No Iterations 3
time step continuity errors : sum local = 0.000492943, global = 9.77493e-06, cumulative = 0.00319641
smoothSolver:  Solving for nuTilda, Initial residual = 0.0392961, Final residual = 0.00382303, No Iterations 2
ExecutionTime = 2.17 s  ClockTime = 3 s

Time = 46

smoothSolver:  Solving for Ux, Initial residual = 0.0121354, Final residual = 0.000548778, No Iterations 4
smoothSolver:  Solving for Uy, Initial residual = 0.015557, Final residual = 0.000581707, No Iterations 4
GAMG:  Solving for p, Initial residual = 0.242737, Final residual = 0.0166401, No Iterations 3
time step continuity errors : sum local = 0.000511349, global = 1.46821e-05, cumulative = 0.00321109
smoothSolver:  Solving for nuTilda, Initial residual = 0.0400103, Final residual = 0.00382229, No Iterations 2
ExecutionTime = 2.22 s  ClockTime = 3 s

Time = 47

smoothSolver:  Solving for Ux, Initial residual = 0.0123125, Final residual = 0.000564545, No Iterations 4
smoothSolver:  Solving for Uy, Initial residual = 0.0154648, Final residual = 0.000578814, No Iterations 4
GAMG:  Solving for p, Initial residual = 0.244237, Final residual = 0.0165146, No Iterations 3
time step continuity errors : sum local = 0.000509755, global = 1.55381e-05, cumulative = 0.00322663
smoothSolver:  Solving for nuTilda, Initial residual = 0.0406379, Final residual = 0.0038257, No Iterations 2
ExecutionTime = 2.27 s  ClockTime = 3 s

Time = 48

smoothSolver:  Solving for Ux, Initial residual = 0.0125394, Final residual = 0.000582715, No Iterations 4
smoothSolver:  Solving for Uy, Initial residual = 0.0154714, Final residual = 0.000582298, No Iterations 4
GAMG:  Solving for p, Initial residual = 0.24372, Final residual = 0.0157463, No Iterations 3
time step continuity errors : sum local = 0.000491085, global = 1.27264e-05, cumulative = 0.00323936
smoothSolver:  Solving for nuTilda, Initial residual = 0.0411801, Final residual = 0.00378224, No Iterations 2
ExecutionTime = 2.31 s  ClockTime = 3 s

Time = 49

smoothSolver:  Solving for Ux, Initial residual = 0.0127648, Final residual = 0.000594893, No Iterations 4
smoothSolver:  Solving for Uy, Initial residual = 0.0154226, Final residual = 0.000582946, No Iterations 4
GAMG:  Solving for p, Initial residual = 0.244134, Final residual = 0.0155841, No Iterations 3
time step continuity errors : sum local = 0.000490338, global = 1.08796e-05, cumulative = 0.00325024
smoothSolver:  Solving for nuTilda, Initial residual = 0.0413815, Final residual = 0.0037133, No Iterations 2
ExecutionTime = 2.36 s  ClockTime = 3 s

Time = 50

smoothSolver:  Solving for Ux, Initial residual = 0.0129739, Final residual = 0.000602498, No Iterations 4
smoothSolver:  Solving for Uy, Initial residual = 0.0153396, Final residual = 0.000585113, No Iterations 4
GAMG:  Solving for p, Initial residual = 0.248927, Final residual = 0.0160838, No Iterations 3
time step continuity errors : sum local = 0.000502436, global = 7.93103e-06, cumulative = 0.00325817
smoothSolver:  Solving for nuTilda, Initial residual = 0.0415716, Final residual = 0.00369259, No Iterations 2
ExecutionTime = 2.47 s  ClockTime = 3 s

Time = 51

smoothSolver:  Solving for Ux, Initial residual = 0.0131813, Final residual = 0.000608642, No Iterations 4
smoothSolver:  Solving for Uy, Initial residual = 0.0153759, Final residual = 0.000593863, No Iterations 4
GAMG:  Solving for p, Initial residual = 0.255633, Final residual = 0.0165588, No Iterations 3
time step continuity errors : sum local = 0.000509916, global = 8.11538e-06, cumulative = 0.00326628
smoothSolver:  Solving for nuTilda, Initial residual = 0.0418583, Final residual = 0.00371481, No Iterations 2
ExecutionTime = 2.51 s  ClockTime = 3 s

Time = 52

smoothSolver:  Solving for Ux, Initial residual = 0.0134062, Final residual = 0.000618183, No Iterations 4
smoothSolver:  Solving for Uy, Initial residual = 0.0154829, Final residual = 0.000606804, No Iterations 4
GAMG:  Solving for p, Initial residual = 0.259879, Final residual = 0.0167707, No Iterations 3
time step continuity errors : sum local = 0.000509496, global = 1.05214e-05, cumulative = 0.00327681
smoothSolver:  Solving for nuTilda, Initial residual = 0.041956, Final residual = 0.00374962, No Iterations 2
ExecutionTime = 2.56 s  ClockTime = 4 s

Time = 53

smoothSolver:  Solving for Ux, Initial residual = 0.0136787, Final residual = 0.000631347, No Iterations 4
smoothSolver:  Solving for Uy, Initial residual = 0.0156171, Final residual = 0.000623676, No Iterations 4
GAMG:  Solving for p, Initial residual = 0.26448, Final residual = 0.0171543, No Iterations 3
time step continuity errors : sum local = 0.000516659, global = 1.61149e-05, cumulative = 0.00329292
smoothSolver:  Solving for nuTilda, Initial residual = 0.042235, Final residual = 0.00387507, No Iterations 2
ExecutionTime = 2.6 s  ClockTime = 4 s

Time = 54

smoothSolver:  Solving for Ux, Initial residual = 0.0140154, Final residual = 0.000645398, No Iterations 4
smoothSolver:  Solving for Uy, Initial residual = 0.0157862, Final residual = 0.000640047, No Iterations 4
GAMG:  Solving for p, Initial residual = 0.268018, Final residual = 0.0175543, No Iterations 3
time step continuity errors : sum local = 0.000527188, global = 2.26966e-05, cumulative = 0.00331562
smoothSolver:  Solving for nuTilda, Initial residual = 0.0427869, Final residual = 0.00406734, No Iterations 2
ExecutionTime = 2.64 s  ClockTime = 4 s

Time = 55

smoothSolver:  Solving for Ux, Initial residual = 0.0144241, Final residual = 0.000661608, No Iterations 4
smoothSolver:  Solving for Uy, Initial residual = 0.016028, Final residual = 0.000650839, No Iterations 4
GAMG:  Solving for p, Initial residual = 0.271899, Final residual = 0.0176663, No Iterations 3
time step continuity errors : sum local = 0.000535947, global = 2.94012e-05, cumulative = 0.00334502
smoothSolver:  Solving for nuTilda, Initial residual = 0.0433809, Final residual = 0.00117994, No Iterations 4
ExecutionTime = 2.69 s  ClockTime = 4 s

Time = 56

smoothSolver:  Solving for Ux, Initial residual = 0.0148976, Final residual = 0.000675199, No Iterations 4
smoothSolver:  Solving for Uy, Initial residual = 0.0163416, Final residual = 0.000663481, No Iterations 4
GAMG:  Solving for p, Initial residual = 0.27072, Final residual = 0.0179297, No Iterations 3
time step continuity errors : sum local = 0.000552855, global = 3.47994e-05, cumulative = 0.00337982
smoothSolver:  Solving for nuTilda, Initial residual = 0.0441525, Final residual = 0.00127893, No Iterations 4
bounding nuTilda, min: -0.00171147 max: 13.6768 average: 0.378808
ExecutionTime = 2.73 s  ClockTime = 4 s

Time = 57

smoothSolver:  Solving for Ux, Initial residual = 0.0154197, Final residual = 0.000683057, No Iterations 4
smoothSolver:  Solving for Uy, Initial residual = 0.0166892, Final residual = 0.000679936, No Iterations 4
GAMG:  Solving for p, Initial residual = 0.268789, Final residual = 0.0183841, No Iterations 3
time step continuity errors : sum local = 0.000579524, global = 3.79075e-05, cumulative = 0.00341773
smoothSolver:  Solving for nuTilda, Initial residual = 0.0454151, Final residual = 0.00138, No Iterations 4
bounding nuTilda, min: -0.0157658 max: 14.2292 average: 0.387132
ExecutionTime = 2.78 s  ClockTime = 4 s

Time = 58

smoothSolver:  Solving for Ux, Initial residual = 0.0160023, Final residual = 0.00068501, No Iterations 4
smoothSolver:  Solving for Uy, Initial residual = 0.017051, Final residual = 0.000693159, No Iterations 4
GAMG:  Solving for p, Initial residual = 0.263738, Final residual = 0.0183769, No Iterations 3
time step continuity errors : sum local = 0.000599102, global = 3.88616e-05, cumulative = 0.00345659
smoothSolver:  Solving for nuTilda, Initial residual = 0.0469705, Final residual = 0.00149201, No Iterations 4
bounding nuTilda, min: -0.013572 max: 14.7024 average: 0.395427
ExecutionTime = 2.82 s  ClockTime = 4 s

Time = 59

smoothSolver:  Solving for Ux, Initial residual = 0.0166354, Final residual = 0.000682279, No Iterations 4
smoothSolver:  Solving for Uy, Initial residual = 0.0174509, Final residual = 0.000694582, No Iterations 4
GAMG:  Solving for p, Initial residual = 0.256012, Final residual = 0.0175324, No Iterations 3
time step continuity errors : sum local = 0.000594438, global = 3.78469e-05, cumulative = 0.00349443
smoothSolver:  Solving for nuTilda, Initial residual = 0.0487528, Final residual = 0.00158761, No Iterations 4
bounding nuTilda, min: -0.0177448 max: 15.2879 average: 0.403611
ExecutionTime = 2.87 s  ClockTime = 4 s

Time = 60

smoothSolver:  Solving for Ux, Initial residual = 0.0173152, Final residual = 0.000676312, No Iterations 4
smoothSolver:  Solving for Uy, Initial residual = 0.0178573, Final residual = 0.000688688, No Iterations 4
GAMG:  Solving for p, Initial residual = 0.250928, Final residual = 0.0162728, No Iterations 3
time step continuity errors : sum local = 0.000574776, global = 3.73397e-05, cumulative = 0.00353177
smoothSolver:  Solving for nuTilda, Initial residual = 0.0508754, Final residual = 0.00163483, No Iterations 4
bounding nuTilda, min: -0.028661 max: 15.8354 average: 0.411848
ExecutionTime = 2.92 s  ClockTime = 4 s

Time = 61

smoothSolver:  Solving for Ux, Initial residual = 0.0180283, Final residual = 0.000670046, No Iterations 4
smoothSolver:  Solving for Uy, Initial residual = 0.0183145, Final residual = 0.000689408, No Iterations 4
GAMG:  Solving for p, Initial residual = 0.244164, Final residual = 0.0155946, No Iterations 3
time step continuity errors : sum local = 0.000571018, global = 4.04381e-05, cumulative = 0.00357221
smoothSolver:  Solving for nuTilda, Initial residual = 0.053171, Final residual = 0.00164657, No Iterations 4
bounding nuTilda, min: -0.019275 max: 16.2279 average: 0.420308
ExecutionTime = 2.97 s  ClockTime = 4 s

Time = 62

smoothSolver:  Solving for Ux, Initial residual = 0.0188106, Final residual = 0.000669593, No Iterations 4
smoothSolver:  Solving for Uy, Initial residual = 0.0188607, Final residual = 0.000693301, No Iterations 4
GAMG:  Solving for p, Initial residual = 0.238437, Final residual = 0.0156483, No Iterations 3
time step continuity errors : sum local = 0.000589204, global = 4.38346e-05, cumulative = 0.00361605
smoothSolver:  Solving for nuTilda, Initial residual = 0.0553711, Final residual = 0.00164213, No Iterations 4
bounding nuTilda, min: -0.0326348 max: 16.4527 average: 0.42907
ExecutionTime = 3.01 s  ClockTime = 4 s

Time = 63

smoothSolver:  Solving for Ux, Initial residual = 0.019634, Final residual = 0.000680628, No Iterations 4
smoothSolver:  Solving for Uy, Initial residual = 0.0194437, Final residual = 0.000703526, No Iterations 4
GAMG:  Solving for p, Initial residual = 0.232968, Final residual = 0.0155095, No Iterations 3
time step continuity errors : sum local = 0.00059951, global = 3.77857e-05, cumulative = 0.00365383
smoothSolver:  Solving for nuTilda, Initial residual = 0.0575074, Final residual = 0.00162758, No Iterations 4
bounding nuTilda, min: -0.0336888 max: 16.4653 average: 0.438248
ExecutionTime = 3.05 s  ClockTime = 4 s

Time = 64

smoothSolver:  Solving for Ux, Initial residual = 0.0204835, Final residual = 0.000697248, No Iterations 4
smoothSolver:  Solving for Uy, Initial residual = 0.0200956, Final residual = 0.000714848, No Iterations 4
GAMG:  Solving for p, Initial residual = 0.231438, Final residual = 0.0151076, No Iterations 3
time step continuity errors : sum local = 0.000596709, global = 2.99282e-05, cumulative = 0.00368376
smoothSolver:  Solving for nuTilda, Initial residual = 0.0594221, Final residual = 0.00160415, No Iterations 4
bounding nuTilda, min: -0.0320084 max: 16.5525 average: 0.447811
ExecutionTime = 3.1 s  ClockTime = 4 s

Time = 65

smoothSolver:  Solving for Ux, Initial residual = 0.0213563, Final residual = 0.000712653, No Iterations 4
smoothSolver:  Solving for Uy, Initial residual = 0.0207665, Final residual = 0.000727592, No Iterations 4
GAMG:  Solving for p, Initial residual = 0.232084, Final residual = 0.0150162, No Iterations 3
time step continuity errors : sum local = 0.000602214, global = 2.35833e-05, cumulative = 0.00370734
smoothSolver:  Solving for nuTilda, Initial residual = 0.061248, Final residual = 0.00157882, No Iterations 4
bounding nuTilda, min: -0.0405224 max: 16.5373 average: 0.457695
ExecutionTime = 3.15 s  ClockTime = 4 s

Time = 66

smoothSolver:  Solving for Ux, Initial residual = 0.0222384, Final residual = 0.000726505, No Iterations 4
smoothSolver:  Solving for Uy, Initial residual = 0.0214105, Final residual = 0.000744567, No Iterations 4
GAMG:  Solving for p, Initial residual = 0.235563, Final residual = 0.0153245, No Iterations 3
time step continuity errors : sum local = 0.000621419, global = 2.08781e-05, cumulative = 0.00372822
smoothSolver:  Solving for nuTilda, Initial residual = 0.0626595, Final residual = 0.0015499, No Iterations 4
bounding nuTilda, min: -0.0360478 max: 16.4887 average: 0.467897
ExecutionTime = 3.19 s  ClockTime = 4 s

Time = 67

smoothSolver:  Solving for Ux, Initial residual = 0.0231227, Final residual = 0.000739984, No Iterations 4
smoothSolver:  Solving for Uy, Initial residual = 0.0220246, Final residual = 0.000762442, No Iterations 4
GAMG:  Solving for p, Initial residual = 0.2382, Final residual = 0.0157669, No Iterations 3
time step continuity errors : sum local = 0.000647635, global = 2.30329e-05, cumulative = 0.00375125
smoothSolver:  Solving for nuTilda, Initial residual = 0.0637706, Final residual = 0.00152133, No Iterations 4
bounding nuTilda, min: -0.0426467 max: 16.2947 average: 0.478354
ExecutionTime = 3.24 s  ClockTime = 4 s

Time = 68

smoothSolver:  Solving for Ux, Initial residual = 0.0239975, Final residual = 0.000756445, No Iterations 4
smoothSolver:  Solving for Uy, Initial residual = 0.0226529, Final residual = 0.000779861, No Iterations 4
GAMG:  Solving for p, Initial residual = 0.240161, Final residual = 0.0159061, No Iterations 3
time step continuity errors : sum local = 0.00066388, global = 2.56211e-05, cumulative = 0.00377688
smoothSolver:  Solving for nuTilda, Initial residual = 0.0645581, Final residual = 0.00149144, No Iterations 4
bounding nuTilda, min: -0.0453649 max: 15.9328 average: 0.489141
ExecutionTime = 3.29 s  ClockTime = 4 s

Time = 69

smoothSolver:  Solving for Ux, Initial residual = 0.0248721, Final residual = 0.000778725, No Iterations 4
smoothSolver:  Solving for Uy, Initial residual = 0.0232756, Final residual = 0.000795368, No Iterations 4
GAMG:  Solving for p, Initial residual = 0.244292, Final residual = 0.0158017, No Iterations 3
time step continuity errors : sum local = 0.000670929, global = 2.49134e-05, cumulative = 0.00380179
smoothSolver:  Solving for nuTilda, Initial residual = 0.0649903, Final residual = 0.00648429, No Iterations 2
bounding nuTilda, min: -0.0546588 max: 15.658 average: 0.501315
ExecutionTime = 3.33 s  ClockTime = 5 s

Time = 70

smoothSolver:  Solving for Ux, Initial residual = 0.0256666, Final residual = 0.000806336, No Iterations 4
smoothSolver:  Solving for Uy, Initial residual = 0.0238701, Final residual = 0.000809309, No Iterations 4
GAMG:  Solving for p, Initial residual = 0.248917, Final residual = 0.015579, No Iterations 3
time step continuity errors : sum local = 0.000675225, global = 2.16397e-05, cumulative = 0.00382343
smoothSolver:  Solving for nuTilda, Initial residual = 0.0657619, Final residual = 0.0065463, No Iterations 2
bounding nuTilda, min: -0.0600554 max: 15.5878 average: 0.513803
ExecutionTime = 3.38 s  ClockTime = 5 s

Time = 71

smoothSolver:  Solving for Ux, Initial residual = 0.0263947, Final residual = 0.000832948, No Iterations 4
smoothSolver:  Solving for Uy, Initial residual = 0.0243878, Final residual = 0.000819727, No Iterations 4
GAMG:  Solving for p, Initial residual = 0.253576, Final residual = 0.0155937, No Iterations 3
time step continuity errors : sum local = 0.000688856, global = 1.54426e-05, cumulative = 0.00383887
smoothSolver:  Solving for nuTilda, Initial residual = 0.0663633, Final residual = 0.00657352, No Iterations 2
bounding nuTilda, min: -0.0642307 max: 15.2867 average: 0.52661
ExecutionTime = 3.42 s  ClockTime = 5 s

Time = 72

smoothSolver:  Solving for Ux, Initial residual = 0.0270944, Final residual = 0.000859648, No Iterations 4
smoothSolver:  Solving for Uy, Initial residual = 0.0248799, Final residual = 0.000832809, No Iterations 4
GAMG:  Solving for p, Initial residual = 0.253476, Final residual = 0.0155424, No Iterations 3
time step continuity errors : sum local = 0.000699139, global = 5.71748e-06, cumulative = 0.00384459
smoothSolver:  Solving for nuTilda, Initial residual = 0.0665682, Final residual = 0.00657949, No Iterations 2
bounding nuTilda, min: -0.0694388 max: 15.0433 average: 0.539666
ExecutionTime = 3.47 s  ClockTime = 5 s

Time = 73

smoothSolver:  Solving for Ux, Initial residual = 0.0277687, Final residual = 0.000888796, No Iterations 4
smoothSolver:  Solving for Uy, Initial residual = 0.025393, Final residual = 0.000850341, No Iterations 4
GAMG:  Solving for p, Initial residual = 0.253123, Final residual = 0.0151526, No Iterations 3
time step continuity errors : sum local = 0.000691985, global = -6.04437e-06, cumulative = 0.00383854
smoothSolver:  Solving for nuTilda, Initial residual = 0.0666382, Final residual = 0.00659917, No Iterations 2
bounding nuTilda, min: -0.0717306 max: 14.6458 average: 0.553135
ExecutionTime = 3.51 s  ClockTime = 5 s

Time = 74

smoothSolver:  Solving for Ux, Initial residual = 0.0283772, Final residual = 0.000921064, No Iterations 4
smoothSolver:  Solving for Uy, Initial residual = 0.0258585, Final residual = 0.000870519, No Iterations 4
GAMG:  Solving for p, Initial residual = 0.256017, Final residual = 0.0147688, No Iterations 3
time step continuity errors : sum local = 0.000680001, global = -1.33002e-05, cumulative = 0.00382524
smoothSolver:  Solving for nuTilda, Initial residual = 0.0667496, Final residual = 0.00661135, No Iterations 2
bounding nuTilda, min: -0.0724707 max: 14.3957 average: 0.567184
ExecutionTime = 3.56 s  ClockTime = 5 s

Time = 75

smoothSolver:  Solving for Ux, Initial residual = 0.0288793, Final residual = 0.000955996, No Iterations 4
smoothSolver:  Solving for Uy, Initial residual = 0.0263047, Final residual = 0.000889714, No Iterations 4
GAMG:  Solving for p, Initial residual = 0.258571, Final residual = 0.0140752, No Iterations 3
time step continuity errors : sum local = 0.000649189, global = -1.85503e-05, cumulative = 0.00380669
smoothSolver:  Solving for nuTilda, Initial residual = 0.0664804, Final residual = 0.00661255, No Iterations 2
bounding nuTilda, min: -0.0734649 max: 15.1554 average: 0.581707
ExecutionTime = 3.6 s  ClockTime = 5 s

Time = 76

smoothSolver:  Solving for Ux, Initial residual = 0.0292799, Final residual = 0.000995789, No Iterations 4
smoothSolver:  Solving for Uy, Initial residual = 0.0267631, Final residual = 0.000909454, No Iterations 4
GAMG:  Solving for p, Initial residual = 0.26221, Final residual = 0.0131557, No Iterations 3
time step continuity errors : sum local = 0.000602803, global = -2.27124e-05, cumulative = 0.00378398
smoothSolver:  Solving for nuTilda, Initial residual = 0.0659633, Final residual = 0.00175556, No Iterations 4
bounding nuTilda, min: -0.0804477 max: 16.101 average: 0.59701
ExecutionTime = 3.65 s  ClockTime = 5 s

Time = 77

smoothSolver:  Solving for Ux, Initial residual = 0.0296794, Final residual = 0.00103361, No Iterations 4
smoothSolver:  Solving for Uy, Initial residual = 0.0272829, Final residual = 0.000930237, No Iterations 4
GAMG:  Solving for p, Initial residual = 0.261776, Final residual = 0.0123102, No Iterations 3
time step continuity errors : sum local = 0.000558763, global = -2.39756e-05, cumulative = 0.00376001
smoothSolver:  Solving for nuTilda, Initial residual = 0.0650951, Final residual = 0.00645028, No Iterations 2
bounding nuTilda, min: -0.0850782 max: 16.8593 average: 0.612345
ExecutionTime = 3.69 s  ClockTime = 5 s

Time = 78

smoothSolver:  Solving for Ux, Initial residual = 0.0300177, Final residual = 0.00106919, No Iterations 4
smoothSolver:  Solving for Uy, Initial residual = 0.0278507, Final residual = 0.000953262, No Iterations 4
GAMG:  Solving for p, Initial residual = 0.261709, Final residual = 0.0121432, No Iterations 3
time step continuity errors : sum local = 0.000545865, global = -1.52401e-05, cumulative = 0.00374477
smoothSolver:  Solving for nuTilda, Initial residual = 0.0646876, Final residual = 0.00175916, No Iterations 4
bounding nuTilda, min: -0.0860508 max: 17.601 average: 0.628608
ExecutionTime = 3.75 s  ClockTime = 5 s

Time = 79

smoothSolver:  Solving for Ux, Initial residual = 0.0302796, Final residual = 0.00109675, No Iterations 4
smoothSolver:  Solving for Uy, Initial residual = 0.0283621, Final residual = 0.000971593, No Iterations 4
GAMG:  Solving for p, Initial residual = 0.260421, Final residual = 0.0127607, No Iterations 3
time step continuity errors : sum local = 0.000566997, global = -6.04568e-06, cumulative = 0.00373872
smoothSolver:  Solving for nuTilda, Initial residual = 0.0636232, Final residual = 0.00635919, No Iterations 2
bounding nuTilda, min: -0.0830222 max: 18.6457 average: 0.644027
ExecutionTime = 3.79 s  ClockTime = 5 s

Time = 80

smoothSolver:  Solving for Ux, Initial residual = 0.0304777, Final residual = 0.00112426, No Iterations 4
smoothSolver:  Solving for Uy, Initial residual = 0.0288879, Final residual = 0.00099212, No Iterations 4
GAMG:  Solving for p, Initial residual = 0.259828, Final residual = 0.0136703, No Iterations 3
time step continuity errors : sum local = 0.000602915, global = 8.96796e-07, cumulative = 0.00373962
smoothSolver:  Solving for nuTilda, Initial residual = 0.0633512, Final residual = 0.00176878, No Iterations 4
bounding nuTilda, min: -0.0787018 max: 19.2454 average: 0.659693
ExecutionTime = 3.84 s  ClockTime = 5 s

Time = 81

smoothSolver:  Solving for Ux, Initial residual = 0.0306922, Final residual = 0.00114044, No Iterations 4
smoothSolver:  Solving for Uy, Initial residual = 0.0293392, Final residual = 0.00100308, No Iterations 4
GAMG:  Solving for p, Initial residual = 0.257625, Final residual = 0.014725, No Iterations 3
time step continuity errors : sum local = 0.000645581, global = 1.64367e-07, cumulative = 0.00373978
smoothSolver:  Solving for nuTilda, Initial residual = 0.0624606, Final residual = 0.00169515, No Iterations 4
bounding nuTilda, min: -0.0819728 max: 19.9406 average: 0.674838
ExecutionTime = 3.88 s  ClockTime = 5 s

Time = 82

smoothSolver:  Solving for Ux, Initial residual = 0.0308657, Final residual = 0.00115011, No Iterations 4
smoothSolver:  Solving for Uy, Initial residual = 0.0300229, Final residual = 0.00101033, No Iterations 4
GAMG:  Solving for p, Initial residual = 0.256136, Final residual = 0.015016, No Iterations 3
time step continuity errors : sum local = 0.000657907, global = 1.15431e-06, cumulative = 0.00374094
smoothSolver:  Solving for nuTilda, Initial residual = 0.0620626, Final residual = 0.00612545, No Iterations 2
bounding nuTilda, min: -0.0805892 max: 20.6146 average: 0.689077
ExecutionTime = 3.92 s  ClockTime = 5 s

Time = 83

smoothSolver:  Solving for Ux, Initial residual = 0.0309484, Final residual = 0.00115666, No Iterations 4
smoothSolver:  Solving for Uy, Initial residual = 0.0308067, Final residual = 0.00101316, No Iterations 4
GAMG:  Solving for p, Initial residual = 0.258448, Final residual = 0.0149596, No Iterations 3
time step continuity errors : sum local = 0.000650527, global = -2.94305e-06, cumulative = 0.00373799
smoothSolver:  Solving for nuTilda, Initial residual = 0.0623093, Final residual = 0.0061927, No Iterations 2
bounding nuTilda, min: -0.087695 max: 21.4141 average: 0.702787
ExecutionTime = 3.97 s  ClockTime = 5 s

Time = 84

smoothSolver:  Solving for Ux, Initial residual = 0.0310896, Final residual = 0.00115808, No Iterations 4
smoothSolver:  Solving for Uy, Initial residual = 0.0317491, Final residual = 0.00101629, No Iterations 4
GAMG:  Solving for p, Initial residual = 0.257813, Final residual = 0.0147263, No Iterations 3
time step continuity errors : sum local = 0.000630225, global = -1.67198e-05, cumulative = 0.00372127
smoothSolver:  Solving for nuTilda, Initial residual = 0.0627295, Final residual = 0.00622214, No Iterations 2
bounding nuTilda, min: -0.157277 max: 22.1201 average: 0.715844
ExecutionTime = 4.02 s  ClockTime = 5 s

Time = 85

smoothSolver:  Solving for Ux, Initial residual = 0.0312058, Final residual = 0.0011579, No Iterations 4
smoothSolver:  Solving for Uy, Initial residual = 0.0326828, Final residual = 0.00324435, No Iterations 2
GAMG:  Solving for p, Initial residual = 0.25163, Final residual = 0.0151823, No Iterations 3
time step continuity errors : sum local = 0.000631685, global = -3.51954e-05, cumulative = 0.00368608
smoothSolver:  Solving for nuTilda, Initial residual = 0.0630958, Final residual = 0.00615863, No Iterations 2
bounding nuTilda, min: -0.166184 max: 22.7288 average: 0.727972
ExecutionTime = 4.06 s  ClockTime = 5 s

Time = 86

smoothSolver:  Solving for Ux, Initial residual = 0.0310445, Final residual = 0.00114132, No Iterations 4
smoothSolver:  Solving for Uy, Initial residual = 0.0339373, Final residual = 0.00108418, No Iterations 4
GAMG:  Solving for p, Initial residual = 0.25903, Final residual = 0.0152049, No Iterations 3
time step continuity errors : sum local = 0.000606807, global = -2.66995e-05, cumulative = 0.00365938
smoothSolver:  Solving for nuTilda, Initial residual = 0.0633224, Final residual = 0.00610014, No Iterations 2
bounding nuTilda, min: -0.132003 max: 23.6106 average: 0.738783
ExecutionTime = 4.1 s  ClockTime = 5 s

Time = 87

smoothSolver:  Solving for Ux, Initial residual = 0.0311394, Final residual = 0.00113768, No Iterations 4
smoothSolver:  Solving for Uy, Initial residual = 0.0343612, Final residual = 0.00107347, No Iterations 4
GAMG:  Solving for p, Initial residual = 0.263725, Final residual = 0.0155705, No Iterations 3
time step continuity errors : sum local = 0.000593581, global = -2.60466e-05, cumulative = 0.00363333
smoothSolver:  Solving for nuTilda, Initial residual = 0.0634992, Final residual = 0.00602233, No Iterations 2
bounding nuTilda, min: -0.117683 max: 24.3801 average: 0.747291
ExecutionTime = 4.14 s  ClockTime = 5 s

Time = 88

smoothSolver:  Solving for Ux, Initial residual = 0.0311237, Final residual = 0.00113804, No Iterations 4
smoothSolver:  Solving for Uy, Initial residual = 0.0345884, Final residual = 0.00338953, No Iterations 2
GAMG:  Solving for p, Initial residual = 0.263299, Final residual = 0.0168982, No Iterations 3
time step continuity errors : sum local = 0.000615726, global = -2.71382e-05, cumulative = 0.00360619
smoothSolver:  Solving for nuTilda, Initial residual = 0.0632061, Final residual = 0.00593528, No Iterations 2
bounding nuTilda, min: -0.149459 max: 24.9521 average: 0.753302
ExecutionTime = 4.18 s  ClockTime = 6 s

Time = 89

smoothSolver:  Solving for Ux, Initial residual = 0.0307904, Final residual = 0.00111014, No Iterations 4
smoothSolver:  Solving for Uy, Initial residual = 0.0354813, Final residual = 0.00108928, No Iterations 4
GAMG:  Solving for p, Initial residual = 0.266166, Final residual = 0.0168299, No Iterations 3
time step continuity errors : sum local = 0.000590305, global = -3.51113e-06, cumulative = 0.00360268
smoothSolver:  Solving for nuTilda, Initial residual = 0.0629551, Final residual = 0.00580672, No Iterations 2
bounding nuTilda, min: -0.0830972 max: 25.7655 average: 0.756413
ExecutionTime = 4.23 s  ClockTime = 6 s

Time = 90

smoothSolver:  Solving for Ux, Initial residual = 0.030468, Final residual = 0.00108708, No Iterations 4
smoothSolver:  Solving for Uy, Initial residual = 0.0357124, Final residual = 0.00352378, No Iterations 2
GAMG:  Solving for p, Initial residual = 0.258396, Final residual = 0.0182098, No Iterations 3
time step continuity errors : sum local = 0.0006229, global = 8.50602e-06, cumulative = 0.00361119
smoothSolver:  Solving for nuTilda, Initial residual = 0.0621712, Final residual = 0.00566312, No Iterations 2
bounding nuTilda, min: -0.147658 max: 26.4509 average: 0.75638
ExecutionTime = 4.28 s  ClockTime = 6 s

Time = 91

smoothSolver:  Solving for Ux, Initial residual = 0.0298885, Final residual = 0.0010573, No Iterations 4
smoothSolver:  Solving for Uy, Initial residual = 0.0361187, Final residual = 0.00110813, No Iterations 4
GAMG:  Solving for p, Initial residual = 0.267061, Final residual = 0.026493, No Iterations 2
time step continuity errors : sum local = 0.000896504, global = 7.86819e-06, cumulative = 0.00361906
smoothSolver:  Solving for nuTilda, Initial residual = 0.0612803, Final residual = 0.00546853, No Iterations 2
bounding nuTilda, min: -0.206718 max: 27.1192 average: 0.752622
ExecutionTime = 4.32 s  ClockTime = 6 s

Time = 92

smoothSolver:  Solving for Ux, Initial residual = 0.0293578, Final residual = 0.00103092, No Iterations 4
smoothSolver:  Solving for Uy, Initial residual = 0.0353918, Final residual = 0.00346594, No Iterations 2
GAMG:  Solving for p, Initial residual = 0.264329, Final residual = 0.0235464, No Iterations 3
time step continuity errors : sum local = 0.000794653, global = -6.0983e-05, cumulative = 0.00355807
smoothSolver:  Solving for nuTilda, Initial residual = 0.0598677, Final residual = 0.0052376, No Iterations 2
bounding nuTilda, min: -0.212762 max: 27.8661 average: 0.745001
ExecutionTime = 4.36 s  ClockTime = 6 s

Time = 93

smoothSolver:  Solving for Ux, Initial residual = 0.0286608, Final residual = 0.000998526, No Iterations 4
smoothSolver:  Solving for Uy, Initial residual = 0.035415, Final residual = 0.00352755, No Iterations 2
GAMG:  Solving for p, Initial residual = 0.253383, Final residual = 0.0222237, No Iterations 3
time step continuity errors : sum local = 0.000760845, global = -5.81462e-05, cumulative = 0.00349993
smoothSolver:  Solving for nuTilda, Initial residual = 0.0578383, Final residual = 0.00494472, No Iterations 2
bounding nuTilda, min: -0.237077 max: 28.358 average: 0.732981
ExecutionTime = 4.41 s  ClockTime = 6 s

Time = 94

smoothSolver:  Solving for Ux, Initial residual = 0.0277665, Final residual = 0.000956056, No Iterations 4
smoothSolver:  Solving for Uy, Initial residual = 0.0353965, Final residual = 0.00108566, No Iterations 4
GAMG:  Solving for p, Initial residual = 0.248698, Final residual = 0.0171218, No Iterations 3
time step continuity errors : sum local = 0.000589709, global = -2.02293e-05, cumulative = 0.0034797
smoothSolver:  Solving for nuTilda, Initial residual = 0.0556267, Final residual = 0.00466366, No Iterations 2
bounding nuTilda, min: -0.285663 max: 29.2107 average: 0.716605
ExecutionTime = 4.45 s  ClockTime = 6 s

Time = 95

smoothSolver:  Solving for Ux, Initial residual = 0.0268073, Final residual = 0.000928236, No Iterations 4
smoothSolver:  Solving for Uy, Initial residual = 0.0346496, Final residual = 0.00335636, No Iterations 2
GAMG:  Solving for p, Initial residual = 0.239091, Final residual = 0.0218746, No Iterations 2
time step continuity errors : sum local = 0.00075117, global = 2.36289e-06, cumulative = 0.00348206
smoothSolver:  Solving for nuTilda, Initial residual = 0.05377, Final residual = 0.00439475, No Iterations 2
bounding nuTilda, min: -0.321973 max: 29.6454 average: 0.695783
ExecutionTime = 4.49 s  ClockTime = 6 s

Time = 96

smoothSolver:  Solving for Ux, Initial residual = 0.0251617, Final residual = 0.000868606, No Iterations 4
smoothSolver:  Solving for Uy, Initial residual = 0.0336475, Final residual = 0.00321342, No Iterations 2
GAMG:  Solving for p, Initial residual = 0.24042, Final residual = 0.0169636, No Iterations 3
time step continuity errors : sum local = 0.000574702, global = -1.53941e-05, cumulative = 0.00346667
smoothSolver:  Solving for nuTilda, Initial residual = 0.0519999, Final residual = 0.00428216, No Iterations 2
bounding nuTilda, min: -0.367458 max: 30.377 average: 0.671705
ExecutionTime = 4.54 s  ClockTime = 6 s

Time = 97

smoothSolver:  Solving for Ux, Initial residual = 0.0234368, Final residual = 0.000804904, No Iterations 4
smoothSolver:  Solving for Uy, Initial residual = 0.032821, Final residual = 0.00308641, No Iterations 2
GAMG:  Solving for p, Initial residual = 0.238627, Final residual = 0.0166565, No Iterations 3
time step continuity errors : sum local = 0.000550716, global = 1.72911e-05, cumulative = 0.00348396
smoothSolver:  Solving for nuTilda, Initial residual = 0.0510738, Final residual = 0.00410204, No Iterations 2
bounding nuTilda, min: -0.465537 max: 31.1546 average: 0.644705
ExecutionTime = 4.59 s  ClockTime = 6 s

Time = 98

smoothSolver:  Solving for Ux, Initial residual = 0.021833, Final residual = 0.00074266, No Iterations 4
smoothSolver:  Solving for Uy, Initial residual = 0.0319108, Final residual = 0.00288011, No Iterations 2
GAMG:  Solving for p, Initial residual = 0.240366, Final residual = 0.0162505, No Iterations 3
time step continuity errors : sum local = 0.00052085, global = 2.798e-05, cumulative = 0.00351194
smoothSolver:  Solving for nuTilda, Initial residual = 0.0511208, Final residual = 0.00385655, No Iterations 2
bounding nuTilda, min: -0.557925 max: 32.0352 average: 0.616776
ExecutionTime = 4.63 s  ClockTime = 6 s

Time = 99

smoothSolver:  Solving for Ux, Initial residual = 0.0203385, Final residual = 0.000691533, No Iterations 4
smoothSolver:  Solving for Uy, Initial residual = 0.0305705, Final residual = 0.00262821, No Iterations 2
GAMG:  Solving for p, Initial residual = 0.225841, Final residual = 0.0151409, No Iterations 3
time step continuity errors : sum local = 0.000469016, global = 2.47628e-05, cumulative = 0.0035367
smoothSolver:  Solving for nuTilda, Initial residual = 0.0519811, Final residual = 0.0035486, No Iterations 2
bounding nuTilda, min: -0.59771 max: 32.4301 average: 0.590147
ExecutionTime = 4.67 s  ClockTime = 6 s

Time = 100

smoothSolver:  Solving for Ux, Initial residual = 0.0191316, Final residual = 0.000656197, No Iterations 4
smoothSolver:  Solving for Uy, Initial residual = 0.0289589, Final residual = 0.00237474, No Iterations 2
GAMG:  Solving for p, Initial residual = 0.203213, Final residual = 0.0133803, No Iterations 3
time step continuity errors : sum local = 0.000403984, global = 1.9147e-05, cumulative = 0.00355585
smoothSolver:  Solving for nuTilda, Initial residual = 0.0530984, Final residual = 0.00310835, No Iterations 2
bounding nuTilda, min: -0.60545 max: 32.4252 average: 0.566788
ExecutionTime = 4.79 s  ClockTime = 6 s

Time = 101

smoothSolver:  Solving for Ux, Initial residual = 0.018116, Final residual = 0.000625974, No Iterations 4
smoothSolver:  Solving for Uy, Initial residual = 0.0275616, Final residual = 0.00215426, No Iterations 2
GAMG:  Solving for p, Initial residual = 0.187357, Final residual = 0.0132906, No Iterations 3
time step continuity errors : sum local = 0.000394949, global = 6.81887e-07, cumulative = 0.00355653
smoothSolver:  Solving for nuTilda, Initial residual = 0.054102, Final residual = 0.00283727, No Iterations 2
bounding nuTilda, min: -0.568765 max: 31.8035 average: 0.548215
ExecutionTime = 4.84 s  ClockTime = 6 s

Time = 102

smoothSolver:  Solving for Ux, Initial residual = 0.017362, Final residual = 0.000598995, No Iterations 4
smoothSolver:  Solving for Uy, Initial residual = 0.0262384, Final residual = 0.001995, No Iterations 2
GAMG:  Solving for p, Initial residual = 0.185086, Final residual = 0.0146372, No Iterations 3
time step continuity errors : sum local = 0.000426789, global = -1.40717e-05, cumulative = 0.00354246
smoothSolver:  Solving for nuTilda, Initial residual = 0.0541155, Final residual = 0.00278072, No Iterations 2
bounding nuTilda, min: -0.688661 max: 30.9368 average: 0.534585
ExecutionTime = 4.88 s  ClockTime = 6 s

Time = 103

smoothSolver:  Solving for Ux, Initial residual = 0.0166254, Final residual = 0.000573583, No Iterations 4
smoothSolver:  Solving for Uy, Initial residual = 0.0250676, Final residual = 0.0018985, No Iterations 2
GAMG:  Solving for p, Initial residual = 0.185544, Final residual = 0.0156384, No Iterations 3
time step continuity errors : sum local = 0.000439855, global = -1.80783e-05, cumulative = 0.00352438
smoothSolver:  Solving for nuTilda, Initial residual = 0.05379, Final residual = 0.00308064, No Iterations 2
bounding nuTilda, min: -0.410041 max: 30.7905 average: 0.525099
ExecutionTime = 4.92 s  ClockTime = 6 s

Time = 104

smoothSolver:  Solving for Ux, Initial residual = 0.0160603, Final residual = 0.000555159, No Iterations 4
smoothSolver:  Solving for Uy, Initial residual = 0.0242978, Final residual = 0.00184937, No Iterations 2
GAMG:  Solving for p, Initial residual = 0.190085, Final residual = 0.0159411, No Iterations 3
time step continuity errors : sum local = 0.000425732, global = -1.76768e-05, cumulative = 0.0035067
smoothSolver:  Solving for nuTilda, Initial residual = 0.0540088, Final residual = 0.00327487, No Iterations 2
bounding nuTilda, min: -0.515573 max: 30.1344 average: 0.518313
ExecutionTime = 4.96 s  ClockTime = 6 s

Time = 105

smoothSolver:  Solving for Ux, Initial residual = 0.0155368, Final residual = 0.000547286, No Iterations 4
smoothSolver:  Solving for Uy, Initial residual = 0.0237006, Final residual = 0.00184535, No Iterations 2
GAMG:  Solving for p, Initial residual = 0.197159, Final residual = 0.0155098, No Iterations 3
time step continuity errors : sum local = 0.000391706, global = -2.45431e-05, cumulative = 0.00348216
smoothSolver:  Solving for nuTilda, Initial residual = 0.0540397, Final residual = 0.00331416, No Iterations 2
bounding nuTilda, min: -0.214506 max: 29.4233 average: 0.512885
ExecutionTime = 5 s  ClockTime = 7 s

Time = 106

smoothSolver:  Solving for Ux, Initial residual = 0.0150273, Final residual = 0.000545307, No Iterations 4
smoothSolver:  Solving for Uy, Initial residual = 0.0231073, Final residual = 0.00187, No Iterations 2
GAMG:  Solving for p, Initial residual = 0.210811, Final residual = 0.0150201, No Iterations 3
time step continuity errors : sum local = 0.000362652, global = -2.52836e-05, cumulative = 0.00345688
smoothSolver:  Solving for nuTilda, Initial residual = 0.0540374, Final residual = 0.00329588, No Iterations 2
bounding nuTilda, min: -0.651076 max: 28.4782 average: 0.507718
ExecutionTime = 5.04 s  ClockTime = 7 s

Time = 107

smoothSolver:  Solving for Ux, Initial residual = 0.0145347, Final residual = 0.00054509, No Iterations 4
smoothSolver:  Solving for Uy, Initial residual = 0.0225382, Final residual = 0.00189581, No Iterations 2
GAMG:  Solving for p, Initial residual = 0.221252, Final residual = 0.0151542, No Iterations 3
time step continuity errors : sum local = 0.000355256, global = -2.14228e-05, cumulative = 0.00343545
smoothSolver:  Solving for nuTilda, Initial residual = 0.0541382, Final residual = 0.00326011, No Iterations 2
bounding nuTilda, min: -0.204463 max: 27.4915 average: 0.502769
ExecutionTime = 5.08 s  ClockTime = 7 s

Time = 108

smoothSolver:  Solving for Ux, Initial residual = 0.0140834, Final residual = 0.000546251, No Iterations 4
smoothSolver:  Solving for Uy, Initial residual = 0.0220682, Final residual = 0.00192094, No Iterations 2
GAMG:  Solving for p, Initial residual = 0.227276, Final residual = 0.0161879, No Iterations 3
time step continuity errors : sum local = 0.000374616, global = -1.9722e-05, cumulative = 0.00341573
smoothSolver:  Solving for nuTilda, Initial residual = 0.0540558, Final residual = 0.00319464, No Iterations 2
bounding nuTilda, min: -0.299952 max: 26.5994 average: 0.497566
ExecutionTime = 5.13 s  ClockTime = 7 s

Time = 109

smoothSolver:  Solving for Ux, Initial residual = 0.0136728, Final residual = 0.000547079, No Iterations 4
smoothSolver:  Solving for Uy, Initial residual = 0.0215645, Final residual = 0.00194849, No Iterations 2
GAMG:  Solving for p, Initial residual = 0.231824, Final residual = 0.0179617, No Iterations 3
time step continuity errors : sum local = 0.000412931, global = -2.24499e-05, cumulative = 0.00339328
smoothSolver:  Solving for nuTilda, Initial residual = 0.0540995, Final residual = 0.0031177, No Iterations 2
bounding nuTilda, min: -0.417241 max: 25.7938 average: 0.492476
ExecutionTime = 5.17 s  ClockTime = 7 s

Time = 110

smoothSolver:  Solving for Ux, Initial residual = 0.0133021, Final residual = 0.000549499, No Iterations 4
smoothSolver:  Solving for Uy, Initial residual = 0.0209868, Final residual = 0.00196875, No Iterations 2
GAMG:  Solving for p, Initial residual = 0.232249, Final residual = 0.0187216, No Iterations 3
time step continuity errors : sum local = 0.000434905, global = -1.68874e-05, cumulative = 0.00337639
smoothSolver:  Solving for nuTilda, Initial residual = 0.0539666, Final residual = 0.00304235, No Iterations 2
bounding nuTilda, min: -0.484308 max: 24.7298 average: 0.487748
ExecutionTime = 5.22 s  ClockTime = 7 s

Time = 111

smoothSolver:  Solving for Ux, Initial residual = 0.0130088, Final residual = 0.000555794, No Iterations 4
smoothSolver:  Solving for Uy, Initial residual = 0.0204519, Final residual = 0.00199206, No Iterations 2
GAMG:  Solving for p, Initial residual = 0.232502, Final residual = 0.0186241, No Iterations 3
time step continuity errors : sum local = 0.000442844, global = -9.15352e-06, cumulative = 0.00336724
smoothSolver:  Solving for nuTilda, Initial residual = 0.0535662, Final residual = 0.00295287, No Iterations 2
bounding nuTilda, min: -0.237419 max: 23.4075 average: 0.483955
ExecutionTime = 5.25 s  ClockTime = 7 s

Time = 112

smoothSolver:  Solving for Ux, Initial residual = 0.0128245, Final residual = 0.000564067, No Iterations 4
smoothSolver:  Solving for Uy, Initial residual = 0.019975, Final residual = 0.000779627, No Iterations 4
GAMG:  Solving for p, Initial residual = 0.237047, Final residual = 0.0185833, No Iterations 3
time step continuity errors : sum local = 0.000452949, global = -2.98824e-06, cumulative = 0.00336425
smoothSolver:  Solving for nuTilda, Initial residual = 0.0528751, Final residual = 0.00286355, No Iterations 2
bounding nuTilda, min: -0.340151 max: 21.7241 average: 0.481387
ExecutionTime = 5.3 s  ClockTime = 7 s

Time = 113

smoothSolver:  Solving for Ux, Initial residual = 0.0127918, Final residual = 0.000586191, No Iterations 4
smoothSolver:  Solving for Uy, Initial residual = 0.0193475, Final residual = 0.000748402, No Iterations 4
GAMG:  Solving for p, Initial residual = 0.232385, Final residual = 0.0186491, No Iterations 3
time step continuity errors : sum local = 0.00046552, global = 2.35989e-06, cumulative = 0.00336661
smoothSolver:  Solving for nuTilda, Initial residual = 0.051832, Final residual = 0.00280064, No Iterations 2
bounding nuTilda, min: -0.489742 max: 19.6318 average: 0.480535
ExecutionTime = 5.34 s  ClockTime = 7 s

Time = 114

smoothSolver:  Solving for Ux, Initial residual = 0.0128295, Final residual = 0.000606664, No Iterations 4
smoothSolver:  Solving for Uy, Initial residual = 0.0188168, Final residual = 0.000727249, No Iterations 4
GAMG:  Solving for p, Initial residual = 0.224802, Final residual = 0.0184161, No Iterations 3
time step continuity errors : sum local = 0.00046394, global = 8.39238e-06, cumulative = 0.003375
smoothSolver:  Solving for nuTilda, Initial residual = 0.0503769, Final residual = 0.00275645, No Iterations 2
bounding nuTilda, min: -0.370946 max: 17.1419 average: 0.48199
ExecutionTime = 5.39 s  ClockTime = 7 s

Time = 115

smoothSolver:  Solving for Ux, Initial residual = 0.0129178, Final residual = 0.000618891, No Iterations 4
smoothSolver:  Solving for Uy, Initial residual = 0.0184328, Final residual = 0.000725952, No Iterations 4
GAMG:  Solving for p, Initial residual = 0.219948, Final residual = 0.0185808, No Iterations 3
time step continuity errors : sum local = 0.000470037, global = 1.35501e-05, cumulative = 0.00338855
smoothSolver:  Solving for nuTilda, Initial residual = 0.048261, Final residual = 0.00274747, No Iterations 2
bounding nuTilda, min: -0.276889 max: 14.2169 average: 0.485968
ExecutionTime = 5.44 s  ClockTime = 7 s

Time = 116

smoothSolver:  Solving for Ux, Initial residual = 0.0130691, Final residual = 0.00062762, No Iterations 4
smoothSolver:  Solving for Uy, Initial residual = 0.0181807, Final residual = 0.000742505, No Iterations 4
GAMG:  Solving for p, Initial residual = 0.215308, Final residual = 0.0188274, No Iterations 3
time step continuity errors : sum local = 0.000476065, global = 1.84773e-05, cumulative = 0.00340703
smoothSolver:  Solving for nuTilda, Initial residual = 0.0456568, Final residual = 0.00280548, No Iterations 2
bounding nuTilda, min: -0.429372 max: 11.837 average: 0.492688
ExecutionTime = 5.48 s  ClockTime = 7 s

Time = 117

smoothSolver:  Solving for Ux, Initial residual = 0.0132744, Final residual = 0.000640185, No Iterations 4
smoothSolver:  Solving for Uy, Initial residual = 0.0179475, Final residual = 0.000760702, No Iterations 4
GAMG:  Solving for p, Initial residual = 0.211083, Final residual = 0.0185315, No Iterations 3
time step continuity errors : sum local = 0.000468932, global = 2.42958e-05, cumulative = 0.00343133
smoothSolver:  Solving for nuTilda, Initial residual = 0.0422013, Final residual = 0.00289642, No Iterations 2
bounding nuTilda, min: -0.392764 max: 12.3225 average: 0.502179
ExecutionTime = 5.52 s  ClockTime = 7 s

Time = 118

smoothSolver:  Solving for Ux, Initial residual = 0.0135245, Final residual = 0.000658314, No Iterations 4
smoothSolver:  Solving for Uy, Initial residual = 0.0176644, Final residual = 0.000769944, No Iterations 4
GAMG:  Solving for p, Initial residual = 0.204412, Final residual = 0.0177812, No Iterations 3
time step continuity errors : sum local = 0.000453414, global = 2.94469e-05, cumulative = 0.00346077
smoothSolver:  Solving for nuTilda, Initial residual = 0.0390095, Final residual = 0.00303897, No Iterations 2
bounding nuTilda, min: -0.415293 max: 13.0386 average: 0.514081
ExecutionTime = 5.56 s  ClockTime = 7 s

Time = 119

smoothSolver:  Solving for Ux, Initial residual = 0.0138249, Final residual = 0.000680193, No Iterations 4
smoothSolver:  Solving for Uy, Initial residual = 0.0174205, Final residual = 0.000772679, No Iterations 4
GAMG:  Solving for p, Initial residual = 0.200484, Final residual = 0.0170388, No Iterations 3
time step continuity errors : sum local = 0.000437815, global = 3.41993e-05, cumulative = 0.00349497
smoothSolver:  Solving for nuTilda, Initial residual = 0.0357828, Final residual = 0.00322235, No Iterations 2
bounding nuTilda, min: -0.438781 max: 13.6271 average: 0.528061
ExecutionTime = 5.61 s  ClockTime = 7 s

Time = 120

smoothSolver:  Solving for Ux, Initial residual = 0.0141493, Final residual = 0.000700399, No Iterations 4
smoothSolver:  Solving for Uy, Initial residual = 0.0172257, Final residual = 0.000771178, No Iterations 4
GAMG:  Solving for p, Initial residual = 0.19786, Final residual = 0.0163931, No Iterations 3
time step continuity errors : sum local = 0.000428016, global = 3.76183e-05, cumulative = 0.00353259
smoothSolver:  Solving for nuTilda, Initial residual = 0.0336949, Final residual = 0.00105114, No Iterations 4
bounding nuTilda, min: -0.14896 max: 14.1027 average: 0.543461
ExecutionTime = 5.65 s  ClockTime = 7 s

Time = 121

smoothSolver:  Solving for Ux, Initial residual = 0.0145149, Final residual = 0.000719012, No Iterations 4
smoothSolver:  Solving for Uy, Initial residual = 0.017112, Final residual = 0.000768982, No Iterations 4
GAMG:  Solving for p, Initial residual = 0.197016, Final residual = 0.0158532, No Iterations 3
time step continuity errors : sum local = 0.000421521, global = 3.89654e-05, cumulative = 0.00357156
smoothSolver:  Solving for nuTilda, Initial residual = 0.0325763, Final residual = 0.00110963, No Iterations 4
bounding nuTilda, min: -0.0868658 max: 14.6571 average: 0.559145
ExecutionTime = 5.7 s  ClockTime = 7 s

Time = 122

smoothSolver:  Solving for Ux, Initial residual = 0.0149112, Final residual = 0.000735128, No Iterations 4
smoothSolver:  Solving for Uy, Initial residual = 0.0170647, Final residual = 0.000766029, No Iterations 4
GAMG:  Solving for p, Initial residual = 0.195101, Final residual = 0.0153805, No Iterations 3
time step continuity errors : sum local = 0.000417474, global = 3.85575e-05, cumulative = 0.00361011
smoothSolver:  Solving for nuTilda, Initial residual = 0.0322372, Final residual = 0.00115787, No Iterations 4
bounding nuTilda, min: -0.0753765 max: 15.318 average: 0.574795
ExecutionTime = 5.74 s  ClockTime = 7 s

Time = 123

smoothSolver:  Solving for Ux, Initial residual = 0.0153509, Final residual = 0.000749939, No Iterations 4
smoothSolver:  Solving for Uy, Initial residual = 0.0170683, Final residual = 0.000763219, No Iterations 4
GAMG:  Solving for p, Initial residual = 0.189618, Final residual = 0.0150035, No Iterations 3
time step continuity errors : sum local = 0.000417879, global = 3.80081e-05, cumulative = 0.00364812
smoothSolver:  Solving for nuTilda, Initial residual = 0.0324526, Final residual = 0.00119299, No Iterations 4
bounding nuTilda, min: -0.0467319 max: 15.8254 average: 0.590032
ExecutionTime = 5.78 s  ClockTime = 8 s

Time = 124

smoothSolver:  Solving for Ux, Initial residual = 0.0158324, Final residual = 0.000763348, No Iterations 4
smoothSolver:  Solving for Uy, Initial residual = 0.0171228, Final residual = 0.00076084, No Iterations 4
GAMG:  Solving for p, Initial residual = 0.184665, Final residual = 0.0148967, No Iterations 3
time step continuity errors : sum local = 0.000424074, global = 3.50055e-05, cumulative = 0.00368313
smoothSolver:  Solving for nuTilda, Initial residual = 0.0330171, Final residual = 0.00121726, No Iterations 4
bounding nuTilda, min: -0.0523034 max: 16.1808 average: 0.604684
ExecutionTime = 5.83 s  ClockTime = 8 s

Time = 125

smoothSolver:  Solving for Ux, Initial residual = 0.0163648, Final residual = 0.000775996, No Iterations 4
smoothSolver:  Solving for Uy, Initial residual = 0.0172233, Final residual = 0.000756548, No Iterations 4
GAMG:  Solving for p, Initial residual = 0.181649, Final residual = 0.0146817, No Iterations 3
time step continuity errors : sum local = 0.000428268, global = 3.21514e-05, cumulative = 0.00371528
smoothSolver:  Solving for nuTilda, Initial residual = 0.0340003, Final residual = 0.00122492, No Iterations 4
bounding nuTilda, min: -0.0550632 max: 16.5204 average: 0.618612
ExecutionTime = 5.88 s  ClockTime = 8 s

Time = 126

smoothSolver:  Solving for Ux, Initial residual = 0.0169444, Final residual = 0.000788717, No Iterations 4
smoothSolver:  Solving for Uy, Initial residual = 0.017397, Final residual = 0.000749362, No Iterations 4
GAMG:  Solving for p, Initial residual = 0.180087, Final residual = 0.0145279, No Iterations 3
time step continuity errors : sum local = 0.000433467, global = 2.9439e-05, cumulative = 0.00374472
smoothSolver:  Solving for nuTilda, Initial residual = 0.0350487, Final residual = 0.00121775, No Iterations 4
bounding nuTilda, min: -0.05414 max: 16.9718 average: 0.631809
ExecutionTime = 5.93 s  ClockTime = 8 s

Time = 127

smoothSolver:  Solving for Ux, Initial residual = 0.017566, Final residual = 0.00079704, No Iterations 4
smoothSolver:  Solving for Uy, Initial residual = 0.0176119, Final residual = 0.000744905, No Iterations 4
GAMG:  Solving for p, Initial residual = 0.177854, Final residual = 0.0144078, No Iterations 3
time step continuity errors : sum local = 0.000439836, global = 2.87912e-05, cumulative = 0.00377351
smoothSolver:  Solving for nuTilda, Initial residual = 0.036247, Final residual = 0.00119202, No Iterations 4
bounding nuTilda, min: -0.0567694 max: 17.2571 average: 0.644317
ExecutionTime = 5.97 s  ClockTime = 8 s

Time = 128

smoothSolver:  Solving for Ux, Initial residual = 0.0182496, Final residual = 0.000803062, No Iterations 4
smoothSolver:  Solving for Uy, Initial residual = 0.0179073, Final residual = 0.000740632, No Iterations 4
GAMG:  Solving for p, Initial residual = 0.176257, Final residual = 0.0143074, No Iterations 3
time step continuity errors : sum local = 0.000445437, global = 2.93225e-05, cumulative = 0.00380283
smoothSolver:  Solving for nuTilda, Initial residual = 0.0375803, Final residual = 0.00115708, No Iterations 4
bounding nuTilda, min: -0.0579142 max: 17.4184 average: 0.656409
ExecutionTime = 6.01 s  ClockTime = 8 s

Time = 129

smoothSolver:  Solving for Ux, Initial residual = 0.0189817, Final residual = 0.000810016, No Iterations 4
smoothSolver:  Solving for Uy, Initial residual = 0.0182891, Final residual = 0.000739307, No Iterations 4
GAMG:  Solving for p, Initial residual = 0.174982, Final residual = 0.0140351, No Iterations 3
[...]
ExecutionTime = 21.76 s  ClockTime = 27 s

Time = 470

smoothSolver:  Solving for Ux, Initial residual = 0.00838315, Final residual = 0.000364227, No Iterations 4
smoothSolver:  Solving for Uy, Initial residual = 0.0106817, Final residual = 0.000372796, No Iterations 4
GAMG:  Solving for p, Initial residual = 0.0414283, Final residual = 0.00255805, No Iterations 4
time step continuity errors : sum local = 4.72444e-05, global = 4.93557e-06, cumulative = 0.00435464
smoothSolver:  Solving for nuTilda, Initial residual = 0.0133295, Final residual = 0.000785655, No Iterations 2
bounding nuTilda, min: -0.270824 max: 38.4064 average: 2.63747
ExecutionTime = 21.8 s  ClockTime = 27 s

Time = 471

smoothSolver:  Solving for Ux, Initial residual = 0.0081082, Final residual = 0.000353633, No Iterations 4
smoothSolver:  Solving for Uy, Initial residual = 0.0105085, Final residual = 0.000374069, No Iterations 4
GAMG:  Solving for p, Initial residual = 0.0417331, Final residual = 0.0026557, No Iterations 4
time step continuity errors : sum local = 4.86906e-05, global = -1.87346e-07, cumulative = 0.00435446
smoothSolver:  Solving for nuTilda, Initial residual = 0.0129335, Final residual = 0.000743994, No Iterations 2
bounding nuTilda, min: -0.270103 max: 38.4839 average: 2.63955
ExecutionTime = 21.85 s  ClockTime = 27 s

Time = 472

smoothSolver:  Solving for Ux, Initial residual = 0.00785257, Final residual = 0.000344303, No Iterations 4
smoothSolver:  Solving for Uy, Initial residual = 0.0103352, Final residual = 0.000377271, No Iterations 4
GAMG:  Solving for p, Initial residual = 0.0421235, Final residual = 0.00278481, No Iterations 4
time step continuity errors : sum local = 5.0743e-05, global = -5.94645e-06, cumulative = 0.00434851
smoothSolver:  Solving for nuTilda, Initial residual = 0.0125151, Final residual = 0.000707133, No Iterations 2
bounding nuTilda, min: -0.298556 max: 38.5561 average: 2.64287
ExecutionTime = 21.89 s  ClockTime = 27 s

Time = 473

smoothSolver:  Solving for Ux, Initial residual = 0.0076139, Final residual = 0.000335998, No Iterations 4
smoothSolver:  Solving for Uy, Initial residual = 0.0101886, Final residual = 0.000380431, No Iterations 4
GAMG:  Solving for p, Initial residual = 0.0421238, Final residual = 0.00302902, No Iterations 4
time step continuity errors : sum local = 5.49347e-05, global = -1.01018e-05, cumulative = 0.00433841
smoothSolver:  Solving for nuTilda, Initial residual = 0.0120403, Final residual = 0.000674559, No Iterations 2
bounding nuTilda, min: -0.24123 max: 38.6229 average: 2.64754
ExecutionTime = 21.93 s  ClockTime = 27 s

Time = 474

smoothSolver:  Solving for Ux, Initial residual = 0.00740508, Final residual = 0.000328962, No Iterations 4
smoothSolver:  Solving for Uy, Initial residual = 0.010029, Final residual = 0.00038426, No Iterations 4
GAMG:  Solving for p, Initial residual = 0.0422206, Final residual = 0.00343997, No Iterations 4
time step continuity errors : sum local = 6.21169e-05, global = -1.50376e-05, cumulative = 0.00432337
smoothSolver:  Solving for nuTilda, Initial residual = 0.0115442, Final residual = 0.000647495, No Iterations 2
bounding nuTilda, min: -0.274073 max: 38.6842 average: 2.65375
ExecutionTime = 21.98 s  ClockTime = 27 s

Time = 475

smoothSolver:  Solving for Ux, Initial residual = 0.00722255, Final residual = 0.000323431, No Iterations 4
smoothSolver:  Solving for Uy, Initial residual = 0.0098852, Final residual = 0.000388009, No Iterations 4
GAMG:  Solving for p, Initial residual = 0.0424324, Final residual = 0.00379019, No Iterations 4
time step continuity errors : sum local = 6.82184e-05, global = -1.83927e-05, cumulative = 0.00430498
smoothSolver:  Solving for nuTilda, Initial residual = 0.0110927, Final residual = 0.000624647, No Iterations 2
bounding nuTilda, min: -0.240748 max: 38.7581 average: 2.66131
ExecutionTime = 22.02 s  ClockTime = 27 s

Time = 476

smoothSolver:  Solving for Ux, Initial residual = 0.00706043, Final residual = 0.000319769, No Iterations 4
smoothSolver:  Solving for Uy, Initial residual = 0.00976616, Final residual = 0.00039262, No Iterations 4
GAMG:  Solving for p, Initial residual = 0.0426158, Final residual = 0.00402997, No Iterations 4
time step continuity errors : sum local = 7.23272e-05, global = -2.04123e-05, cumulative = 0.00428457
smoothSolver:  Solving for nuTilda, Initial residual = 0.0105475, Final residual = 0.000609022, No Iterations 2
bounding nuTilda, min: -0.238674 max: 38.8395 average: 2.67047
ExecutionTime = 22.06 s  ClockTime = 27 s

Time = 477

smoothSolver:  Solving for Ux, Initial residual = 0.00693156, Final residual = 0.00031745, No Iterations 4
smoothSolver:  Solving for Uy, Initial residual = 0.0096638, Final residual = 0.00039762, No Iterations 4
GAMG:  Solving for p, Initial residual = 0.0424436, Final residual = 0.00416999, No Iterations 4
time step continuity errors : sum local = 7.46715e-05, global = -2.15198e-05, cumulative = 0.00426305
smoothSolver:  Solving for nuTilda, Initial residual = 0.0100763, Final residual = 0.000596798, No Iterations 2
bounding nuTilda, min: -0.270231 max: 38.9166 average: 2.68106
ExecutionTime = 22.1 s  ClockTime = 27 s

Time = 478

smoothSolver:  Solving for Ux, Initial residual = 0.00682134, Final residual = 0.000315865, No Iterations 4
smoothSolver:  Solving for Uy, Initial residual = 0.00956424, Final residual = 0.00040257, No Iterations 4
GAMG:  Solving for p, Initial residual = 0.0423487, Final residual = 0.00293119, No Iterations 5
time step continuity errors : sum local = 5.23514e-05, global = 1.49521e-05, cumulative = 0.004278
smoothSolver:  Solving for nuTilda, Initial residual = 0.00959418, Final residual = 0.000590483, No Iterations 2
bounding nuTilda, min: -0.289401 max: 38.9877 average: 2.69302
ExecutionTime = 22.16 s  ClockTime = 27 s

Time = 479

smoothSolver:  Solving for Ux, Initial residual = 0.00676148, Final residual = 0.000317656, No Iterations 4
smoothSolver:  Solving for Uy, Initial residual = 0.00948932, Final residual = 0.000408887, No Iterations 4
GAMG:  Solving for p, Initial residual = 0.0416888, Final residual = 0.00404747, No Iterations 4
time step continuity errors : sum local = 7.18699e-05, global = -2.03013e-05, cumulative = 0.0042577
smoothSolver:  Solving for nuTilda, Initial residual = 0.00913477, Final residual = 0.000587094, No Iterations 2
bounding nuTilda, min: -0.284364 max: 39.0516 average: 2.70648
ExecutionTime = 22.2 s  ClockTime = 27 s

Time = 480

smoothSolver:  Solving for Ux, Initial residual = 0.0066706, Final residual = 0.000314484, No Iterations 4
smoothSolver:  Solving for Uy, Initial residual = 0.00940588, Final residual = 0.000411235, No Iterations 4
GAMG:  Solving for p, Initial residual = 0.0401296, Final residual = 0.00280658, No Iterations 5
time step continuity errors : sum local = 4.986e-05, global = 1.48165e-05, cumulative = 0.00427251
smoothSolver:  Solving for nuTilda, Initial residual = 0.0087234, Final residual = 0.000588679, No Iterations 2
bounding nuTilda, min: -0.261487 max: 39.1069 average: 2.72117
ExecutionTime = 22.25 s  ClockTime = 27 s

Time = 481

smoothSolver:  Solving for Ux, Initial residual = 0.00662901, Final residual = 0.000315509, No Iterations 4
smoothSolver:  Solving for Uy, Initial residual = 0.00934981, Final residual = 0.000414684, No Iterations 4
GAMG:  Solving for p, Initial residual = 0.0392623, Final residual = 0.00272439, No Iterations 5
time step continuity errors : sum local = 4.82136e-05, global = 1.45064e-05, cumulative = 0.00428702
smoothSolver:  Solving for nuTilda, Initial residual = 0.00840151, Final residual = 0.000594139, No Iterations 2
bounding nuTilda, min: -0.245823 max: 39.1514 average: 2.73725
ExecutionTime = 22.3 s  ClockTime = 28 s

Time = 482

smoothSolver:  Solving for Ux, Initial residual = 0.0066005, Final residual = 0.000316558, No Iterations 4
smoothSolver:  Solving for Uy, Initial residual = 0.00929859, Final residual = 0.000417977, No Iterations 4
GAMG:  Solving for p, Initial residual = 0.0379539, Final residual = 0.002643, No Iterations 5
time step continuity errors : sum local = 4.66297e-05, global = 1.44266e-05, cumulative = 0.00430145
smoothSolver:  Solving for nuTilda, Initial residual = 0.0080638, Final residual = 0.000602442, No Iterations 2
bounding nuTilda, min: -0.277938 max: 39.2194 average: 2.75436
ExecutionTime = 22.34 s  ClockTime = 28 s

Time = 483

smoothSolver:  Solving for Ux, Initial residual = 0.00658834, Final residual = 0.000317739, No Iterations 4
smoothSolver:  Solving for Uy, Initial residual = 0.00926197, Final residual = 0.000420842, No Iterations 4
GAMG:  Solving for p, Initial residual = 0.0368086, Final residual = 0.00269139, No Iterations 5
time step continuity errors : sum local = 4.7384e-05, global = 1.45189e-05, cumulative = 0.00431596
smoothSolver:  Solving for nuTilda, Initial residual = 0.00776844, Final residual = 0.00061227, No Iterations 2
bounding nuTilda, min: -0.203013 max: 39.2997 average: 2.77256
ExecutionTime = 22.38 s  ClockTime = 28 s

Time = 484

smoothSolver:  Solving for Ux, Initial residual = 0.00659379, Final residual = 0.00031944, No Iterations 4
smoothSolver:  Solving for Uy, Initial residual = 0.00922834, Final residual = 0.000423843, No Iterations 4
GAMG:  Solving for p, Initial residual = 0.0362888, Final residual = 0.0027693, No Iterations 5
time step continuity errors : sum local = 4.86571e-05, global = 1.49034e-05, cumulative = 0.00433087
smoothSolver:  Solving for nuTilda, Initial residual = 0.00758329, Final residual = 0.000624401, No Iterations 2
bounding nuTilda, min: -0.1968 max: 39.3662 average: 2.79177
ExecutionTime = 22.42 s  ClockTime = 28 s

Time = 485

smoothSolver:  Solving for Ux, Initial residual = 0.00661617, Final residual = 0.000321805, No Iterations 4
smoothSolver:  Solving for Uy, Initial residual = 0.0092023, Final residual = 0.00042714, No Iterations 4
GAMG:  Solving for p, Initial residual = 0.0358191, Final residual = 0.00277211, No Iterations 5
time step continuity errors : sum local = 4.85842e-05, global = 1.4844e-05, cumulative = 0.00434571
smoothSolver:  Solving for nuTilda, Initial residual = 0.00738065, Final residual = 0.000637924, No Iterations 2
bounding nuTilda, min: -0.208924 max: 39.4166 average: 2.81185
ExecutionTime = 22.47 s  ClockTime = 28 s

Time = 486

smoothSolver:  Solving for Ux, Initial residual = 0.00664965, Final residual = 0.000324689, No Iterations 4
smoothSolver:  Solving for Uy, Initial residual = 0.00918493, Final residual = 0.00042994, No Iterations 4
GAMG:  Solving for p, Initial residual = 0.0352559, Final residual = 0.00277553, No Iterations 5
time step continuity errors : sum local = 4.85134e-05, global = 1.49871e-05, cumulative = 0.0043607
smoothSolver:  Solving for nuTilda, Initial residual = 0.00726496, Final residual = 0.000652327, No Iterations 2
bounding nuTilda, min: -0.21006 max: 39.4809 average: 2.83301
ExecutionTime = 22.52 s  ClockTime = 28 s

Time = 487

smoothSolver:  Solving for Ux, Initial residual = 0.00669686, Final residual = 0.000327808, No Iterations 4
smoothSolver:  Solving for Uy, Initial residual = 0.00918215, Final residual = 0.000432525, No Iterations 4
GAMG:  Solving for p, Initial residual = 0.0346048, Final residual = 0.00273978, No Iterations 5
time step continuity errors : sum local = 4.77544e-05, global = 1.48497e-05, cumulative = 0.00437555
smoothSolver:  Solving for nuTilda, Initial residual = 0.00716246, Final residual = 0.000668624, No Iterations 2
bounding nuTilda, min: -0.215643 max: 39.5552 average: 2.85477
ExecutionTime = 22.57 s  ClockTime = 28 s

Time = 488

smoothSolver:  Solving for Ux, Initial residual = 0.00674802, Final residual = 0.000330923, No Iterations 4
smoothSolver:  Solving for Uy, Initial residual = 0.00919017, Final residual = 0.000435349, No Iterations 4
GAMG:  Solving for p, Initial residual = 0.0339035, Final residual = 0.00270277, No Iterations 5
time step continuity errors : sum local = 4.699e-05, global = 1.47288e-05, cumulative = 0.00439028
smoothSolver:  Solving for nuTilda, Initial residual = 0.00709291, Final residual = 0.000686941, No Iterations 2
bounding nuTilda, min: -0.203982 max: 39.6249 average: 2.87745
ExecutionTime = 22.61 s  ClockTime = 28 s

Time = 489

smoothSolver:  Solving for Ux, Initial residual = 0.00680748, Final residual = 0.000334182, No Iterations 4
smoothSolver:  Solving for Uy, Initial residual = 0.00920527, Final residual = 0.000437739, No Iterations 4
GAMG:  Solving for p, Initial residual = 0.0332273, Final residual = 0.00265818, No Iterations 5
time step continuity errors : sum local = 4.6118e-05, global = 1.45068e-05, cumulative = 0.00440478
smoothSolver:  Solving for nuTilda, Initial residual = 0.00702611, Final residual = 0.000133418, No Iterations 4
bounding nuTilda, min: -0.19914 max: 39.735 average: 2.90353
ExecutionTime = 22.66 s  ClockTime = 28 s

Time = 490

smoothSolver:  Solving for Ux, Initial residual = 0.00687516, Final residual = 0.000337386, No Iterations 4
smoothSolver:  Solving for Uy, Initial residual = 0.00922157, Final residual = 0.000439243, No Iterations 4
GAMG:  Solving for p, Initial residual = 0.0326071, Final residual = 0.00261803, No Iterations 5
time step continuity errors : sum local = 4.53305e-05, global = 1.43188e-05, cumulative = 0.0044191
smoothSolver:  Solving for nuTilda, Initial residual = 0.00704496, Final residual = 0.000135986, No Iterations 4
bounding nuTilda, min: -0.202458 max: 39.8647 average: 2.9304
ExecutionTime = 22.71 s  ClockTime = 28 s

Time = 491

smoothSolver:  Solving for Ux, Initial residual = 0.00695082, Final residual = 0.000340707, No Iterations 4
smoothSolver:  Solving for Uy, Initial residual = 0.00923695, Final residual = 0.000440601, No Iterations 4
GAMG:  Solving for p, Initial residual = 0.0320322, Final residual = 0.00257674, No Iterations 5
time step continuity errors : sum local = 4.45528e-05, global = 1.40594e-05, cumulative = 0.00443316
smoothSolver:  Solving for nuTilda, Initial residual = 0.00707056, Final residual = 0.000138854, No Iterations 4
bounding nuTilda, min: -0.222006 max: 39.9814 average: 2.95792
ExecutionTime = 22.75 s  ClockTime = 28 s

Time = 492

smoothSolver:  Solving for Ux, Initial residual = 0.00702799, Final residual = 0.000344246, No Iterations 4
smoothSolver:  Solving for Uy, Initial residual = 0.00925471, Final residual = 0.000441832, No Iterations 4
GAMG:  Solving for p, Initial residual = 0.0314968, Final residual = 0.00253716, No Iterations 5
time step continuity errors : sum local = 4.38578e-05, global = 1.38197e-05, cumulative = 0.00444698
smoothSolver:  Solving for nuTilda, Initial residual = 0.00710122, Final residual = 0.000141383, No Iterations 4
bounding nuTilda, min: -0.197861 max: 40.1639 average: 2.98601
ExecutionTime = 22.8 s  ClockTime = 28 s

Time = 493

smoothSolver:  Solving for Ux, Initial residual = 0.00710911, Final residual = 0.000347724, No Iterations 4
smoothSolver:  Solving for Uy, Initial residual = 0.00926487, Final residual = 0.000442367, No Iterations 4
GAMG:  Solving for p, Initial residual = 0.0312338, Final residual = 0.00249777, No Iterations 5
time step continuity errors : sum local = 4.31906e-05, global = 1.35097e-05, cumulative = 0.00446049
smoothSolver:  Solving for nuTilda, Initial residual = 0.00718276, Final residual = 0.000143647, No Iterations 4
bounding nuTilda, min: -0.212552 max: 40.3136 average: 3.01472
ExecutionTime = 22.84 s  ClockTime = 28 s

Time = 494

smoothSolver:  Solving for Ux, Initial residual = 0.00719059, Final residual = 0.000351152, No Iterations 4
smoothSolver:  Solving for Uy, Initial residual = 0.00927176, Final residual = 0.000442669, No Iterations 4
GAMG:  Solving for p, Initial residual = 0.031015, Final residual = 0.00246008, No Iterations 5
time step continuity errors : sum local = 4.25435e-05, global = 1.3309e-05, cumulative = 0.0044738
smoothSolver:  Solving for nuTilda, Initial residual = 0.00723049, Final residual = 0.000145661, No Iterations 4
bounding nuTilda, min: -0.217337 max: 40.5121 average: 3.04375
ExecutionTime = 22.89 s  ClockTime = 28 s

Time = 495

smoothSolver:  Solving for Ux, Initial residual = 0.00727757, Final residual = 0.000354467, No Iterations 4
smoothSolver:  Solving for Uy, Initial residual = 0.0092859, Final residual = 0.000442947, No Iterations 4
GAMG:  Solving for p, Initial residual = 0.0309221, Final residual = 0.00242374, No Iterations 5
time step continuity errors : sum local = 4.19046e-05, global = 1.30061e-05, cumulative = 0.00448681
smoothSolver:  Solving for nuTilda, Initial residual = 0.00732031, Final residual = 0.000147669, No Iterations 4
bounding nuTilda, min: -0.215475 max: 40.7079 average: 3.07318
ExecutionTime = 22.94 s  ClockTime = 28 s

Time = 496

smoothSolver:  Solving for Ux, Initial residual = 0.00736609, Final residual = 0.000357778, No Iterations 4
smoothSolver:  Solving for Uy, Initial residual = 0.00929985, Final residual = 0.000442586, No Iterations 4
GAMG:  Solving for p, Initial residual = 0.0308544, Final residual = 0.00238494, No Iterations 5
time step continuity errors : sum local = 4.12067e-05, global = 1.28366e-05, cumulative = 0.00449964
smoothSolver:  Solving for nuTilda, Initial residual = 0.0074267, Final residual = 0.000149328, No Iterations 4
bounding nuTilda, min: -0.229195 max: 40.9062 average: 3.10279
ExecutionTime = 22.98 s  ClockTime = 28 s

Time = 497

smoothSolver:  Solving for Ux, Initial residual = 0.0074569, Final residual = 0.000361034, No Iterations 4
smoothSolver:  Solving for Uy, Initial residual = 0.00930576, Final residual = 0.000441704, No Iterations 4
GAMG:  Solving for p, Initial residual = 0.0307534, Final residual = 0.00233679, No Iterations 5
time step continuity errors : sum local = 4.03516e-05, global = 1.2454e-05, cumulative = 0.0045121
smoothSolver:  Solving for nuTilda, Initial residual = 0.00753445, Final residual = 0.000150513, No Iterations 4
bounding nuTilda, min: -0.219378 max: 41.1474 average: 3.13257
ExecutionTime = 23.03 s  ClockTime = 28 s

Time = 498

smoothSolver:  Solving for Ux, Initial residual = 0.00754596, Final residual = 0.000364064, No Iterations 4
smoothSolver:  Solving for Uy, Initial residual = 0.00930916, Final residual = 0.00044048, No Iterations 4
GAMG:  Solving for p, Initial residual = 0.0305889, Final residual = 0.00302921, No Iterations 4
time step continuity errors : sum local = 5.22877e-05, global = -1.11536e-05, cumulative = 0.00450094
smoothSolver:  Solving for nuTilda, Initial residual = 0.00767743, Final residual = 0.000151784, No Iterations 4
bounding nuTilda, min: -0.221276 max: 41.3726 average: 3.16253
ExecutionTime = 23.08 s  ClockTime = 28 s

Time = 499

smoothSolver:  Solving for Ux, Initial residual = 0.00761799, Final residual = 0.000365289, No Iterations 4
smoothSolver:  Solving for Uy, Initial residual = 0.00929752, Final residual = 0.000437732, No Iterations 4
GAMG:  Solving for p, Initial residual = 0.0303262, Final residual = 0.00240314, No Iterations 5
time step continuity errors : sum local = 4.15624e-05, global = 1.24913e-05, cumulative = 0.00451344
smoothSolver:  Solving for nuTilda, Initial residual = 0.00785233, Final residual = 0.000153228, No Iterations 4
bounding nuTilda, min: -0.222388 max: 41.6248 average: 3.19245
ExecutionTime = 23.12 s  ClockTime = 28 s

Time = 500

smoothSolver:  Solving for Ux, Initial residual = 0.00772249, Final residual = 0.000369902, No Iterations 4
smoothSolver:  Solving for Uy, Initial residual = 0.00928802, Final residual = 0.000436441, No Iterations 4
GAMG:  Solving for p, Initial residual = 0.0303116, Final residual = 0.00233315, No Iterations 5
time step continuity errors : sum local = 4.02893e-05, global = 1.22845e-05, cumulative = 0.00452572
smoothSolver:  Solving for nuTilda, Initial residual = 0.00796851, Final residual = 0.0001536, No Iterations 4
bounding nuTilda, min: -0.22813 max: 41.8936 average: 3.22214
ExecutionTime = 23.24 s  ClockTime = 29 s

End

